data_crystal
 
_cell_length_a    40.12926
_cell_length_b    26.89152
_cell_length_c    41.28183
_cell_angle_alpha 89.97748
_cell_angle_beta  130.05770
_cell_angle_gamma 89.98322
 
_symmetry_space_group_name_Hall 'P 1'
_symmetry_space_group_name_H-M  'P 1'
 
loop_
_symmetry_equiv_pos_as_xyz
 'x,y,z' 
 
loop_
_atom_site_label
_atom_site_type_symbol
_atom_site_fract_x
_atom_site_fract_y
_atom_site_fract_z
_atom_site_charge
Al         Al      0.08333   0.25000   0.00000   1.6838930000
Al         Al      0.08333   0.00000   0.16667   1.6850460000
Al         Al      0.00000   0.25000   0.00000   1.6905180000
Al         Al      0.00000   0.00000   0.16667   1.6900610000
O          O       0.02492   0.24925   0.30797  -1.0107690000
O          O       0.14176  -0.00057   0.19203  -1.0108700000
O          O       0.14175   0.25074   0.02536  -1.0105550000
O          O       0.02490   0.00057   0.14130  -1.0108390000
O          O       0.04016   0.20023   0.04047  -0.6085690000
O          O       0.12691   0.44978   0.12661  -0.6080130000
O          O       0.12651   0.29978   0.29286  -0.6086790000
O          O       0.03975   0.05022   0.20673  -0.6078250000
O          O       0.09691   0.19951   0.04039  -0.6024800000
O          O       0.06976   0.44987   0.12606  -0.6038720000
O          O       0.06975   0.30049   0.29295  -0.6023300000
O          O       0.09691   0.05013   0.20727  -0.6039760000
O          O       0.07100   0.05209   0.12813  -0.6054170000
O          O       0.09560   0.30184   0.03867  -0.6048240000
O          O       0.09566   0.44791   0.20520  -0.6056050000
O          O       0.07106   0.19816   0.29466  -0.6047420000
O          O       0.12768   0.05150   0.12808  -0.6088260000
O          O       0.03852   0.30196   0.03810  -0.6084840000
O          O       0.03898   0.44849   0.20525  -0.6087560000
O          O       0.12814   0.19804   0.29523  -0.6087170000
C          C       0.07531   0.18263   0.05085   0.6788140000
C          C       0.09151   0.43263   0.11588   0.6801730000
C          C       0.09135   0.31737   0.28248   0.6787810000
C          C       0.07516   0.06737   0.21745   0.6801270000
C          C       0.09394   0.13772   0.07833  -0.1654940000
C          C       0.07271   0.38787   0.08827  -0.1668710000
C          C       0.07273   0.36228   0.25501  -0.1654870000
C          C       0.09395   0.11213   0.24506  -0.1668820000
C          C       0.07413   0.11436   0.09056  -0.1779550000
C          C       0.09251   0.36426   0.07614  -0.1769840000
C          C       0.09253   0.38564   0.24277  -0.1779670000
C          C       0.07415   0.13575   0.25720  -0.1769060000
C          C       0.09257   0.06932   0.11771   0.6884870000
C          C       0.07388   0.31938   0.04883   0.6877950000
C          C       0.07409   0.43067   0.21562   0.6886230000
C          C       0.09279   0.18062   0.28450   0.6878370000
H          H       0.12477   0.12402   0.08790   0.1386340000
H          H       0.04171   0.37454   0.07849   0.1388950000
H          H       0.04189   0.37598   0.24543   0.1387330000
H          H       0.12496   0.12547   0.25485   0.1387030000
H          H       0.04339   0.12829   0.08107   0.1437300000
H          H       0.12347   0.37778   0.08588   0.1432450000
H          H       0.12327   0.37171   0.25226   0.1436210000
H          H       0.04320   0.12222   0.24745   0.1434090000
H          H       0.00583   0.23708   0.27910   0.4424580000
H          H       0.16097   0.48773   0.22107   0.4424510000
H          H       0.16084   0.26292   0.05423   0.4421920000
H          H       0.00570   0.01227   0.11227   0.4424700000
Al         Al      0.25000   0.25000   0.00000   1.6838930000
Al         Al      0.25000   0.00000   0.16667   1.6850460000
Al         Al      0.16667   0.25000   0.00000   1.6905180000
Al         Al      0.16667   0.00000   0.16667   1.6900610000
O          O       0.19158   0.24925   0.30797  -1.0107690000
O          O       0.30843  -0.00057   0.19203  -1.0108700000
O          O       0.30842   0.25074   0.02536  -1.0105550000
O          O       0.19157   0.00057   0.14130  -1.0108390000
O          O       0.20682   0.20023   0.04047  -0.6085690000
O          O       0.29358   0.44978   0.12661  -0.6080130000
O          O       0.29317   0.29978   0.29286  -0.6086790000
O          O       0.20642   0.05022   0.20673  -0.6078250000
O          O       0.26358   0.19951   0.04039  -0.6024800000
O          O       0.23642   0.44987   0.12606  -0.6038720000
O          O       0.23642   0.30049   0.29295  -0.6023300000
O          O       0.26358   0.05013   0.20727  -0.6039760000
O          O       0.23767   0.05209   0.12813  -0.6054170000
O          O       0.26227   0.30184   0.03867  -0.6048240000
O          O       0.26233   0.44791   0.20520  -0.6056050000
O          O       0.23773   0.19816   0.29466  -0.6047420000
O          O       0.29435   0.05150   0.12808  -0.6088260000
O          O       0.20519   0.30196   0.03810  -0.6084840000
O          O       0.20565   0.44849   0.20525  -0.6087560000
O          O       0.29481   0.19804   0.29523  -0.6087170000
C          C       0.24198   0.18263   0.05085   0.6788140000
C          C       0.25817   0.43263   0.11588   0.6801730000
C          C       0.25802   0.31737   0.28248   0.6787810000
C          C       0.24182   0.06737   0.21745   0.6801270000
C          C       0.26060   0.13772   0.07833  -0.1654940000
C          C       0.23938   0.38787   0.08827  -0.1668710000
C          C       0.23940   0.36228   0.25501  -0.1654870000
C          C       0.26062   0.11213   0.24506  -0.1668820000
C          C       0.24080   0.11436   0.09056  -0.1779550000
C          C       0.25918   0.36426   0.07614  -0.1769840000
C          C       0.25920   0.38564   0.24277  -0.1779670000
C          C       0.24081   0.13575   0.25720  -0.1769060000
C          C       0.25924   0.06932   0.11771   0.6884870000
C          C       0.24054   0.31938   0.04883   0.6877950000
C          C       0.24076   0.43067   0.21562   0.6886230000
C          C       0.25945   0.18062   0.28450   0.6878370000
H          H       0.29144   0.12402   0.08790   0.1386340000
H          H       0.20837   0.37454   0.07849   0.1388950000
H          H       0.20856   0.37598   0.24543   0.1387330000
H          H       0.29162   0.12547   0.25485   0.1387030000
H          H       0.21005   0.12829   0.08107   0.1437300000
H          H       0.29013   0.37778   0.08588   0.1432450000
H          H       0.28994   0.37171   0.25226   0.1436210000
H          H       0.20986   0.12222   0.24745   0.1434090000
H          H       0.17249   0.23708   0.27910   0.4424580000
H          H       0.32763   0.48773   0.22107   0.4424510000
H          H       0.32751   0.26292   0.05423   0.4421920000
H          H       0.17236   0.01227   0.11227   0.4424700000
Al         Al      0.41667   0.25000   0.00000   1.6838930000
Al         Al      0.41667   0.00000   0.16667   1.6850460000
Al         Al      0.33333   0.25000   0.00000   1.6905180000
Al         Al      0.33333   0.00000   0.16667   1.6900610000
O          O       0.35825   0.24925   0.30797  -1.0107690000
O          O       0.47509  -0.00057   0.19203  -1.0108700000
O          O       0.47508   0.25074   0.02536  -1.0105550000
O          O       0.35824   0.00057   0.14130  -1.0108390000
O          O       0.37349   0.20023   0.04047  -0.6085690000
O          O       0.46025   0.44978   0.12661  -0.6080130000
O          O       0.45984   0.29978   0.29286  -0.6086790000
O          O       0.37308   0.05022   0.20673  -0.6078250000
O          O       0.43024   0.19951   0.04039  -0.6024800000
O          O       0.40309   0.44987   0.12606  -0.6038720000
O          O       0.40309   0.30049   0.29295  -0.6023300000
O          O       0.43024   0.05013   0.20727  -0.6039760000
O          O       0.40434   0.05209   0.12813  -0.6054170000
O          O       0.42894   0.30184   0.03867  -0.6048240000
O          O       0.42900   0.44791   0.20520  -0.6056050000
O          O       0.40439   0.19816   0.29466  -0.6047420000
O          O       0.46102   0.05150   0.12808  -0.6088260000
O          O       0.37185   0.30196   0.03810  -0.6084840000
O          O       0.37231   0.44849   0.20525  -0.6087560000
O          O       0.46148   0.19804   0.29523  -0.6087170000
C          C       0.40864   0.18263   0.05085   0.6788140000
C          C       0.42484   0.43263   0.11588   0.6801730000
C          C       0.42469   0.31737   0.28248   0.6787810000
C          C       0.40849   0.06737   0.21745   0.6801270000
C          C       0.42727   0.13772   0.07833  -0.1654940000
C          C       0.40604   0.38787   0.08827  -0.1668710000
C          C       0.40606   0.36228   0.25501  -0.1654870000
C          C       0.42729   0.11213   0.24506  -0.1668820000
C          C       0.40746   0.11436   0.09056  -0.1779550000
C          C       0.42585   0.36426   0.07614  -0.1769840000
C          C       0.42587   0.38564   0.24277  -0.1779670000
C          C       0.40748   0.13575   0.25720  -0.1769060000
C          C       0.42591   0.06932   0.11771   0.6884870000
C          C       0.40721   0.31938   0.04883   0.6877950000
C          C       0.40742   0.43067   0.21562   0.6886230000
C          C       0.42612   0.18062   0.28450   0.6878370000
H          H       0.45810   0.12402   0.08790   0.1386340000
H          H       0.37504   0.37454   0.07849   0.1388950000
H          H       0.37523   0.37598   0.24543   0.1387330000
H          H       0.45829   0.12547   0.25485   0.1387030000
H          H       0.37672   0.12829   0.08107   0.1437300000
H          H       0.45680   0.37778   0.08588   0.1432450000
H          H       0.45661   0.37171   0.25226   0.1436210000
H          H       0.37653   0.12222   0.24745   0.1434090000
H          H       0.33916   0.23708   0.27910   0.4424580000
H          H       0.49430   0.48773   0.22107   0.4424510000
H          H       0.49417   0.26292   0.05423   0.4421920000
H          H       0.33903   0.01227   0.11227   0.4424700000
Al         Al      0.58333   0.25000   0.00000   1.6838930000
Al         Al      0.58333   0.00000   0.16667   1.6850460000
Al         Al      0.50000   0.25000   0.00000   1.6905180000
Al         Al      0.50000   0.00000   0.16667   1.6900610000
O          O       0.52492   0.24925   0.30797  -1.0107690000
O          O       0.64176  -0.00057   0.19203  -1.0108700000
O          O       0.64175   0.25074   0.02536  -1.0105550000
O          O       0.52490   0.00057   0.14130  -1.0108390000
O          O       0.54016   0.20023   0.04047  -0.6085690000
O          O       0.62691   0.44978   0.12661  -0.6080130000
O          O       0.62651   0.29978   0.29286  -0.6086790000
O          O       0.53975   0.05022   0.20673  -0.6078250000
O          O       0.59691   0.19951   0.04039  -0.6024800000
O          O       0.56976   0.44987   0.12606  -0.6038720000
O          O       0.56975   0.30049   0.29295  -0.6023300000
O          O       0.59691   0.05013   0.20727  -0.6039760000
O          O       0.57100   0.05209   0.12813  -0.6054170000
O          O       0.59560   0.30184   0.03867  -0.6048240000
O          O       0.59566   0.44791   0.20520  -0.6056050000
O          O       0.57106   0.19816   0.29466  -0.6047420000
O          O       0.62768   0.05150   0.12808  -0.6088260000
O          O       0.53852   0.30196   0.03810  -0.6084840000
O          O       0.53898   0.44849   0.20525  -0.6087560000
O          O       0.62814   0.19804   0.29523  -0.6087170000
C          C       0.57531   0.18263   0.05085   0.6788140000
C          C       0.59151   0.43263   0.11588   0.6801730000
C          C       0.59135   0.31737   0.28248   0.6787810000
C          C       0.57516   0.06737   0.21745   0.6801270000
C          C       0.59394   0.13772   0.07833  -0.1654940000
C          C       0.57271   0.38787   0.08827  -0.1668710000
C          C       0.57273   0.36228   0.25501  -0.1654870000
C          C       0.59395   0.11213   0.24506  -0.1668820000
C          C       0.57413   0.11436   0.09056  -0.1779550000
C          C       0.59252   0.36426   0.07614  -0.1769840000
C          C       0.59253   0.38564   0.24277  -0.1779670000
C          C       0.57415   0.13575   0.25720  -0.1769060000
C          C       0.59257   0.06932   0.11771   0.6884870000
C          C       0.57388   0.31938   0.04883   0.6877950000
C          C       0.57409   0.43067   0.21562   0.6886230000
C          C       0.59279   0.18062   0.28450   0.6878370000
H          H       0.62477   0.12402   0.08790   0.1386340000
H          H       0.54171   0.37454   0.07849   0.1388950000
H          H       0.54189   0.37598   0.24543   0.1387330000
H          H       0.62496   0.12547   0.25485   0.1387030000
H          H       0.54339   0.12829   0.08107   0.1437300000
H          H       0.62347   0.37778   0.08588   0.1432450000
H          H       0.62328   0.37171   0.25226   0.1436210000
H          H       0.54320   0.12222   0.24745   0.1434090000
H          H       0.50582   0.23708   0.27910   0.4424580000
H          H       0.66097   0.48773   0.22107   0.4424510000
H          H       0.66084   0.26292   0.05423   0.4421920000
H          H       0.50570   0.01227   0.11227   0.4424700000
Al         Al      0.75000   0.25000   0.00000   1.6838930000
Al         Al      0.75000   0.00000   0.16667   1.6850460000
Al         Al      0.66667   0.25000   0.00000   1.6905180000
Al         Al      0.66667   0.00000   0.16667   1.6900610000
O          O       0.69158   0.24925   0.30797  -1.0107690000
O          O       0.80843  -0.00057   0.19203  -1.0108700000
O          O       0.80842   0.25074   0.02536  -1.0105550000
O          O       0.69157   0.00057   0.14130  -1.0108390000
O          O       0.70683   0.20023   0.04047  -0.6085690000
O          O       0.79358   0.44978   0.12661  -0.6080130000
O          O       0.79317   0.29978   0.29286  -0.6086790000
O          O       0.70642   0.05022   0.20673  -0.6078250000
O          O       0.76358   0.19951   0.04039  -0.6024800000
O          O       0.73642   0.44987   0.12606  -0.6038720000
O          O       0.73642   0.30049   0.29295  -0.6023300000
O          O       0.76358   0.05013   0.20727  -0.6039760000
O          O       0.73767   0.05209   0.12813  -0.6054170000
O          O       0.76227   0.30184   0.03867  -0.6048240000
O          O       0.76233   0.44791   0.20520  -0.6056050000
O          O       0.73773   0.19816   0.29466  -0.6047420000
O          O       0.79435   0.05150   0.12808  -0.6088260000
O          O       0.70519   0.30196   0.03810  -0.6084840000
O          O       0.70565   0.44849   0.20525  -0.6087560000
O          O       0.79481   0.19804   0.29523  -0.6087170000
C          C       0.74198   0.18263   0.05085   0.6788140000
C          C       0.75817   0.43263   0.11588   0.6801730000
C          C       0.75802   0.31737   0.28248   0.6787810000
C          C       0.74182   0.06737   0.21745   0.6801270000
C          C       0.76060   0.13772   0.07833  -0.1654940000
C          C       0.73938   0.38787   0.08827  -0.1668710000
C          C       0.73940   0.36228   0.25501  -0.1654870000
C          C       0.76062   0.11213   0.24506  -0.1668820000
C          C       0.74080   0.11436   0.09056  -0.1779550000
C          C       0.75918   0.36426   0.07614  -0.1769840000
C          C       0.75920   0.38564   0.24277  -0.1779670000
C          C       0.74082   0.13575   0.25720  -0.1769060000
C          C       0.75924   0.06932   0.11771   0.6884870000
C          C       0.74054   0.31938   0.04883   0.6877950000
C          C       0.74076   0.43067   0.21562   0.6886230000
C          C       0.75945   0.18062   0.28450   0.6878370000
H          H       0.79144   0.12402   0.08790   0.1386340000
H          H       0.70837   0.37454   0.07849   0.1388950000
H          H       0.70856   0.37598   0.24543   0.1387330000
H          H       0.79162   0.12547   0.25485   0.1387030000
H          H       0.71005   0.12829   0.08107   0.1437300000
H          H       0.79013   0.37778   0.08588   0.1432450000
H          H       0.78994   0.37171   0.25226   0.1436210000
H          H       0.70986   0.12222   0.24745   0.1434090000
H          H       0.67249   0.23708   0.27910   0.4424580000
H          H       0.82763   0.48773   0.22107   0.4424510000
H          H       0.82751   0.26292   0.05423   0.4421920000
H          H       0.67236   0.01227   0.11227   0.4424700000
Al         Al      0.91667   0.25000   0.00000   1.6838930000
Al         Al      0.91667   0.00000   0.16667   1.6850460000
Al         Al      0.83333   0.25000   0.00000   1.6905180000
Al         Al      0.83333   0.00000   0.16667   1.6900610000
O          O       0.85825   0.24925   0.30797  -1.0107690000
O          O       0.97509  -0.00057   0.19203  -1.0108700000
O          O       0.97508   0.25074   0.02536  -1.0105550000
O          O       0.85824   0.00057   0.14130  -1.0108390000
O          O       0.87349   0.20023   0.04047  -0.6085690000
O          O       0.96025   0.44978   0.12661  -0.6080130000
O          O       0.95984   0.29978   0.29286  -0.6086790000
O          O       0.87308   0.05022   0.20673  -0.6078250000
O          O       0.93024   0.19951   0.04039  -0.6024800000
O          O       0.90309   0.44987   0.12606  -0.6038720000
O          O       0.90309   0.30049   0.29295  -0.6023300000
O          O       0.93024   0.05013   0.20727  -0.6039760000
O          O       0.90434   0.05209   0.12813  -0.6054170000
O          O       0.92894   0.30184   0.03867  -0.6048240000
O          O       0.92899   0.44791   0.20520  -0.6056050000
O          O       0.90439   0.19816   0.29466  -0.6047420000
O          O       0.96102   0.05150   0.12808  -0.6088260000
O          O       0.87185   0.30196   0.03810  -0.6084840000
O          O       0.87231   0.44849   0.20525  -0.6087560000
O          O       0.96148   0.19804   0.29523  -0.6087170000
C          C       0.90864   0.18263   0.05085   0.6788140000
C          C       0.92484   0.43263   0.11588   0.6801730000
C          C       0.92469   0.31737   0.28248   0.6787810000
C          C       0.90849   0.06737   0.21745   0.6801270000
C          C       0.92727   0.13772   0.07833  -0.1654940000
C          C       0.90604   0.38787   0.08827  -0.1668710000
C          C       0.90606   0.36228   0.25501  -0.1654870000
C          C       0.92729   0.11213   0.24506  -0.1668820000
C          C       0.90746   0.11436   0.09056  -0.1779550000
C          C       0.92585   0.36426   0.07614  -0.1769840000
C          C       0.92587   0.38564   0.24277  -0.1779670000
C          C       0.90748   0.13575   0.25720  -0.1769060000
C          C       0.92591   0.06932   0.11771   0.6884870000
C          C       0.90721   0.31938   0.04883   0.6877950000
C          C       0.90742   0.43067   0.21562   0.6886230000
C          C       0.92612   0.18062   0.28450   0.6878370000
H          H       0.95810   0.12402   0.08790   0.1386340000
H          H       0.87504   0.37454   0.07849   0.1388950000
H          H       0.87523   0.37598   0.24543   0.1387330000
H          H       0.95829   0.12547   0.25485   0.1387030000
H          H       0.87672   0.12829   0.08107   0.1437300000
H          H       0.95680   0.37778   0.08588   0.1432450000
H          H       0.95661   0.37171   0.25226   0.1436210000
H          H       0.87653   0.12222   0.24745   0.1434090000
H          H       0.83916   0.23708   0.27910   0.4424580000
H          H       0.99430   0.48773   0.22107   0.4424510000
H          H       0.99417   0.26292   0.05423   0.4421920000
H          H       0.83903   0.01227   0.11227   0.4424700000
Al         Al      0.08333   0.75000   0.00000   1.6838930000
Al         Al      0.08333   0.50000   0.16667   1.6850460000
Al         Al     -0.00000   0.75000   0.00000   1.6905180000
Al         Al      0.00000   0.50000   0.16667   1.6900610000
O          O       0.02491   0.74925   0.30797  -1.0107690000
O          O       0.14176   0.49943   0.19203  -1.0108700000
O          O       0.14175   0.75075   0.02536  -1.0105550000
O          O       0.02490   0.50057   0.14130  -1.0108390000
O          O       0.04016   0.70023   0.04047  -0.6085690000
O          O       0.12691   0.94978   0.12661  -0.6080130000
O          O       0.12651   0.79978   0.29286  -0.6086790000
O          O       0.03975   0.55022   0.20673  -0.6078250000
O          O       0.09691   0.69951   0.04039  -0.6024800000
O          O       0.06976   0.94987   0.12606  -0.6038720000
O          O       0.06975   0.80049   0.29295  -0.6023300000
O          O       0.09691   0.55013   0.20727  -0.6039760000
O          O       0.07100   0.55209   0.12813  -0.6054170000
O          O       0.09560   0.80184   0.03867  -0.6048240000
O          O       0.09566   0.94791   0.20520  -0.6056050000
O          O       0.07106   0.69816   0.29466  -0.6047420000
O          O       0.12768   0.55151   0.12808  -0.6088260000
O          O       0.03852   0.80196   0.03810  -0.6084840000
O          O       0.03898   0.94850   0.20525  -0.6087560000
O          O       0.12815   0.69804   0.29523  -0.6087170000
C          C       0.07531   0.68263   0.05085   0.6788140000
C          C       0.09151   0.93263   0.11588   0.6801730000
C          C       0.09135   0.81737   0.28248   0.6787810000
C          C       0.07516   0.56737   0.21745   0.6801270000
C          C       0.09394   0.63772   0.07833  -0.1654940000
C          C       0.07271   0.88787   0.08827  -0.1668710000
C          C       0.07273   0.86228   0.25501  -0.1654870000
C          C       0.09395   0.61213   0.24506  -0.1668820000
C          C       0.07413   0.61436   0.09056  -0.1779550000
C          C       0.09251   0.86426   0.07614  -0.1769840000
C          C       0.09253   0.88564   0.24277  -0.1779670000
C          C       0.07415   0.63575   0.25720  -0.1769060000
C          C       0.09257   0.56933   0.11771   0.6884870000
C          C       0.07388   0.81937   0.04883   0.6877950000
C          C       0.07409   0.93068   0.21562   0.6886230000
C          C       0.09279   0.68062   0.28450   0.6878370000
H          H       0.12477   0.62401   0.08790   0.1386340000
H          H       0.04171   0.87453   0.07849   0.1388950000
H          H       0.04189   0.87598   0.24543   0.1387330000
H          H       0.12496   0.62547   0.25485   0.1387030000
H          H       0.04339   0.62830   0.08107   0.1437300000
H          H       0.12347   0.87778   0.08588   0.1432450000
H          H       0.12327   0.87171   0.25226   0.1436210000
H          H       0.04320   0.62222   0.24745   0.1434090000
H          H       0.00583   0.73708   0.27910   0.4424580000
H          H       0.16097   0.98773   0.22107   0.4424510000
H          H       0.16084   0.76292   0.05423   0.4421920000
H          H       0.00570   0.51227   0.11227   0.4424700000
Al         Al      0.25000   0.75000   0.00000   1.6838930000
Al         Al      0.25000   0.50000   0.16667   1.6850460000
Al         Al      0.16667   0.75000   0.00000   1.6905180000
Al         Al      0.16667   0.50000   0.16667   1.6900610000
O          O       0.19158   0.74925   0.30797  -1.0107690000
O          O       0.30843   0.49943   0.19203  -1.0108700000
O          O       0.30842   0.75075   0.02536  -1.0105550000
O          O       0.19157   0.50057   0.14130  -1.0108390000
O          O       0.20682   0.70023   0.04047  -0.6085690000
O          O       0.29358   0.94978   0.12661  -0.6080130000
O          O       0.29317   0.79978   0.29286  -0.6086790000
O          O       0.20642   0.55022   0.20673  -0.6078250000
O          O       0.26358   0.69951   0.04039  -0.6024800000
O          O       0.23642   0.94987   0.12606  -0.6038720000
O          O       0.23642   0.80049   0.29295  -0.6023300000
O          O       0.26358   0.55013   0.20727  -0.6039760000
O          O       0.23767   0.55209   0.12813  -0.6054170000
O          O       0.26227   0.80184   0.03867  -0.6048240000
O          O       0.26233   0.94791   0.20520  -0.6056050000
O          O       0.23773   0.69816   0.29466  -0.6047420000
O          O       0.29435   0.55151   0.12808  -0.6088260000
O          O       0.20519   0.80196   0.03810  -0.6084840000
O          O       0.20565   0.94850   0.20525  -0.6087560000
O          O       0.29481   0.69804   0.29523  -0.6087170000
C          C       0.24198   0.68263   0.05085   0.6788140000
C          C       0.25817   0.93263   0.11588   0.6801730000
C          C       0.25802   0.81737   0.28248   0.6787810000
C          C       0.24182   0.56737   0.21745   0.6801270000
C          C       0.26060   0.63772   0.07833  -0.1654940000
C          C       0.23938   0.88787   0.08827  -0.1668710000
C          C       0.23940   0.86228   0.25501  -0.1654870000
C          C       0.26062   0.61213   0.24506  -0.1668820000
C          C       0.24080   0.61436   0.09056  -0.1779550000
C          C       0.25918   0.86426   0.07614  -0.1769840000
C          C       0.25920   0.88564   0.24277  -0.1779670000
C          C       0.24081   0.63575   0.25720  -0.1769060000
C          C       0.25924   0.56933   0.11771   0.6884870000
C          C       0.24054   0.81937   0.04883   0.6877950000
C          C       0.24076   0.93068   0.21562   0.6886230000
C          C       0.25945   0.68062   0.28450   0.6878370000
H          H       0.29144   0.62401   0.08790   0.1386340000
H          H       0.20837   0.87453   0.07849   0.1388950000
H          H       0.20856   0.87598   0.24543   0.1387330000
H          H       0.29162   0.62547   0.25485   0.1387030000
H          H       0.21005   0.62830   0.08107   0.1437300000
H          H       0.29013   0.87778   0.08588   0.1432450000
H          H       0.28994   0.87171   0.25226   0.1436210000
H          H       0.20986   0.62222   0.24745   0.1434090000
H          H       0.17249   0.73708   0.27910   0.4424580000
H          H       0.32763   0.98773   0.22107   0.4424510000
H          H       0.32751   0.76292   0.05423   0.4421920000
H          H       0.17236   0.51227   0.11227   0.4424700000
Al         Al      0.41667   0.75000   0.00000   1.6838930000
Al         Al      0.41667   0.50000   0.16667   1.6850460000
Al         Al      0.33333   0.75000   0.00000   1.6905180000
Al         Al      0.33333   0.50000   0.16667   1.6900610000
O          O       0.35825   0.74925   0.30797  -1.0107690000
O          O       0.47509   0.49943   0.19203  -1.0108700000
O          O       0.47508   0.75075   0.02536  -1.0105550000
O          O       0.35824   0.50057   0.14130  -1.0108390000
O          O       0.37349   0.70023   0.04047  -0.6085690000
O          O       0.46025   0.94978   0.12661  -0.6080130000
O          O       0.45984   0.79978   0.29286  -0.6086790000
O          O       0.37308   0.55022   0.20673  -0.6078250000
O          O       0.43024   0.69951   0.04039  -0.6024800000
O          O       0.40309   0.94987   0.12606  -0.6038720000
O          O       0.40309   0.80049   0.29295  -0.6023300000
O          O       0.43024   0.55013   0.20727  -0.6039760000
O          O       0.40434   0.55209   0.12813  -0.6054170000
O          O       0.42894   0.80184   0.03867  -0.6048240000
O          O       0.42900   0.94791   0.20520  -0.6056050000
O          O       0.40440   0.69816   0.29466  -0.6047420000
O          O       0.46102   0.55151   0.12808  -0.6088260000
O          O       0.37185   0.80196   0.03810  -0.6084840000
O          O       0.37231   0.94850   0.20525  -0.6087560000
O          O       0.46148   0.69804   0.29523  -0.6087170000
C          C       0.40864   0.68263   0.05085   0.6788140000
C          C       0.42484   0.93263   0.11588   0.6801730000
C          C       0.42469   0.81737   0.28248   0.6787810000
C          C       0.40849   0.56737   0.21745   0.6801270000
C          C       0.42727   0.63772   0.07833  -0.1654940000
C          C       0.40604   0.88787   0.08827  -0.1668710000
C          C       0.40606   0.86228   0.25501  -0.1654870000
C          C       0.42729   0.61213   0.24506  -0.1668820000
C          C       0.40746   0.61436   0.09056  -0.1779550000
C          C       0.42585   0.86426   0.07614  -0.1769840000
C          C       0.42587   0.88564   0.24277  -0.1779670000
C          C       0.40748   0.63575   0.25720  -0.1769060000
C          C       0.42591   0.56933   0.11771   0.6884870000
C          C       0.40721   0.81937   0.04883   0.6877950000
C          C       0.40742   0.93068   0.21562   0.6886230000
C          C       0.42612   0.68062   0.28450   0.6878370000
H          H       0.45810   0.62401   0.08790   0.1386340000
H          H       0.37504   0.87453   0.07849   0.1388950000
H          H       0.37523   0.87598   0.24543   0.1387330000
H          H       0.45829   0.62547   0.25485   0.1387030000
H          H       0.37672   0.62830   0.08107   0.1437300000
H          H       0.45680   0.87778   0.08588   0.1432450000
H          H       0.45661   0.87171   0.25226   0.1436210000
H          H       0.37653   0.62222   0.24745   0.1434090000
H          H       0.33916   0.73708   0.27910   0.4424580000
H          H       0.49430   0.98773   0.22107   0.4424510000
H          H       0.49417   0.76292   0.05423   0.4421920000
H          H       0.33903   0.51227   0.11227   0.4424700000
Al         Al      0.58333   0.75000   0.00000   1.6838930000
Al         Al      0.58333   0.50000   0.16667   1.6850460000
Al         Al      0.50000   0.75000   0.00000   1.6905180000
Al         Al      0.50000   0.50000   0.16667   1.6900610000
O          O       0.52492   0.74925   0.30797  -1.0107690000
O          O       0.64176   0.49943   0.19203  -1.0108700000
O          O       0.64175   0.75075   0.02536  -1.0105550000
O          O       0.52490   0.50057   0.14130  -1.0108390000
O          O       0.54016   0.70023   0.04047  -0.6085690000
O          O       0.62691   0.94978   0.12661  -0.6080130000
O          O       0.62651   0.79978   0.29286  -0.6086790000
O          O       0.53975   0.55022   0.20673  -0.6078250000
O          O       0.59691   0.69951   0.04039  -0.6024800000
O          O       0.56976   0.94987   0.12606  -0.6038720000
O          O       0.56975   0.80049   0.29295  -0.6023300000
O          O       0.59691   0.55013   0.20727  -0.6039760000
O          O       0.57100   0.55209   0.12813  -0.6054170000
O          O       0.59560   0.80184   0.03867  -0.6048240000
O          O       0.59566   0.94791   0.20520  -0.6056050000
O          O       0.57106   0.69816   0.29466  -0.6047420000
O          O       0.62768   0.55151   0.12808  -0.6088260000
O          O       0.53852   0.80196   0.03810  -0.6084840000
O          O       0.53898   0.94850   0.20525  -0.6087560000
O          O       0.62814   0.69804   0.29523  -0.6087170000
C          C       0.57531   0.68263   0.05085   0.6788140000
C          C       0.59150   0.93263   0.11588   0.6801730000
C          C       0.59135   0.81737   0.28248   0.6787810000
C          C       0.57516   0.56737   0.21745   0.6801270000
C          C       0.59393   0.63772   0.07833  -0.1654940000
C          C       0.57271   0.88787   0.08827  -0.1668710000
C          C       0.57273   0.86228   0.25501  -0.1654870000
C          C       0.59395   0.61213   0.24506  -0.1668820000
C          C       0.57413   0.61436   0.09056  -0.1779550000
C          C       0.59252   0.86426   0.07614  -0.1769840000
C          C       0.59253   0.88564   0.24277  -0.1779670000
C          C       0.57415   0.63575   0.25720  -0.1769060000
C          C       0.59257   0.56933   0.11771   0.6884870000
C          C       0.57388   0.81937   0.04883   0.6877950000
C          C       0.57409   0.93068   0.21562   0.6886230000
C          C       0.59278   0.68062   0.28450   0.6878370000
H          H       0.62477   0.62401   0.08790   0.1386340000
H          H       0.54171   0.87453   0.07849   0.1388950000
H          H       0.54189   0.87598   0.24543   0.1387330000
H          H       0.62496   0.62547   0.25485   0.1387030000
H          H       0.54339   0.62830   0.08107   0.1437300000
H          H       0.62347   0.87778   0.08588   0.1432450000
H          H       0.62328   0.87171   0.25226   0.1436210000
H          H       0.54320   0.62222   0.24745   0.1434090000
H          H       0.50582   0.73708   0.27910   0.4424580000
H          H       0.66097   0.98773   0.22107   0.4424510000
H          H       0.66084   0.76292   0.05423   0.4421920000
H          H       0.50570   0.51227   0.11227   0.4424700000
Al         Al      0.75000   0.75000   0.00000   1.6838930000
Al         Al      0.75000   0.50000   0.16667   1.6850460000
Al         Al      0.66667   0.75000   0.00000   1.6905180000
Al         Al      0.66667   0.50000   0.16667   1.6900610000
O          O       0.69158   0.74925   0.30797  -1.0107690000
O          O       0.80843   0.49943   0.19203  -1.0108700000
O          O       0.80842   0.75075   0.02536  -1.0105550000
O          O       0.69157   0.50057   0.14130  -1.0108390000
O          O       0.70682   0.70023   0.04047  -0.6085690000
O          O       0.79358   0.94978   0.12661  -0.6080130000
O          O       0.79317   0.79978   0.29286  -0.6086790000
O          O       0.70642   0.55022   0.20673  -0.6078250000
O          O       0.76358   0.69951   0.04039  -0.6024800000
O          O       0.73642   0.94987   0.12606  -0.6038720000
O          O       0.73642   0.80049   0.29295  -0.6023300000
O          O       0.76357   0.55013   0.20727  -0.6039760000
O          O       0.73767   0.55209   0.12813  -0.6054170000
O          O       0.76227   0.80184   0.03867  -0.6048240000
O          O       0.76233   0.94791   0.20520  -0.6056050000
O          O       0.73773   0.69816   0.29466  -0.6047420000
O          O       0.79435   0.55151   0.12808  -0.6088260000
O          O       0.70519   0.80196   0.03810  -0.6084840000
O          O       0.70565   0.94850   0.20525  -0.6087560000
O          O       0.79481   0.69804   0.29523  -0.6087170000
C          C       0.74198   0.68263   0.05085   0.6788140000
C          C       0.75817   0.93263   0.11588   0.6801730000
C          C       0.75802   0.81737   0.28248   0.6787810000
C          C       0.74182   0.56737   0.21745   0.6801270000
C          C       0.76060   0.63772   0.07833  -0.1654940000
C          C       0.73938   0.88787   0.08827  -0.1668710000
C          C       0.73940   0.86228   0.25501  -0.1654870000
C          C       0.76062   0.61213   0.24506  -0.1668820000
C          C       0.74080   0.61436   0.09056  -0.1779550000
C          C       0.75918   0.86426   0.07614  -0.1769840000
C          C       0.75920   0.88564   0.24277  -0.1779670000
C          C       0.74082   0.63575   0.25720  -0.1769060000
C          C       0.75924   0.56933   0.11771   0.6884870000
C          C       0.74054   0.81937   0.04883   0.6877950000
C          C       0.74076   0.93068   0.21562   0.6886230000
C          C       0.75945   0.68062   0.28450   0.6878370000
H          H       0.79144   0.62401   0.08790   0.1386340000
H          H       0.70837   0.87453   0.07849   0.1388950000
H          H       0.70856   0.87598   0.24543   0.1387330000
H          H       0.79162   0.62547   0.25485   0.1387030000
H          H       0.71005   0.62830   0.08107   0.1437300000
H          H       0.79013   0.87778   0.08588   0.1432450000
H          H       0.78994   0.87171   0.25226   0.1436210000
H          H       0.70986   0.62222   0.24745   0.1434090000
H          H       0.67249   0.73708   0.27910   0.4424580000
H          H       0.82763   0.98773   0.22107   0.4424510000
H          H       0.82751   0.76292   0.05423   0.4421920000
H          H       0.67236   0.51227   0.11227   0.4424700000
Al         Al      0.91667   0.75000   0.00000   1.6838930000
Al         Al      0.91667   0.50000   0.16667   1.6850460000
Al         Al      0.83333   0.75000   0.00000   1.6905180000
Al         Al      0.83333   0.50000   0.16667   1.6900610000
O          O       0.85825   0.74925   0.30797  -1.0107690000
O          O       0.97509   0.49943   0.19203  -1.0108700000
O          O       0.97508   0.75075   0.02536  -1.0105550000
O          O       0.85824   0.50057   0.14130  -1.0108390000
O          O       0.87349   0.70023   0.04047  -0.6085690000
O          O       0.96025   0.94978   0.12661  -0.6080130000
O          O       0.95984   0.79978   0.29286  -0.6086790000
O          O       0.87308   0.55022   0.20673  -0.6078250000
O          O       0.93024   0.69951   0.04039  -0.6024800000
O          O       0.90309   0.94987   0.12606  -0.6038720000
O          O       0.90309   0.80049   0.29295  -0.6023300000
O          O       0.93024   0.55013   0.20727  -0.6039760000
O          O       0.90434   0.55209   0.12813  -0.6054170000
O          O       0.92894   0.80184   0.03867  -0.6048240000
O          O       0.92899   0.94791   0.20520  -0.6056050000
O          O       0.90439   0.69816   0.29466  -0.6047420000
O          O       0.96102   0.55151   0.12808  -0.6088260000
O          O       0.87185   0.80196   0.03810  -0.6084840000
O          O       0.87231   0.94850   0.20525  -0.6087560000
O          O       0.96148   0.69804   0.29523  -0.6087170000
C          C       0.90864   0.68263   0.05085   0.6788140000
C          C       0.92484   0.93263   0.11588   0.6801730000
C          C       0.92469   0.81737   0.28248   0.6787810000
C          C       0.90849   0.56737   0.21745   0.6801270000
C          C       0.92727   0.63772   0.07833  -0.1654940000
C          C       0.90604   0.88787   0.08827  -0.1668710000
C          C       0.90606   0.86228   0.25501  -0.1654870000
C          C       0.92729   0.61213   0.24506  -0.1668820000
C          C       0.90746   0.61436   0.09056  -0.1779550000
C          C       0.92585   0.86426   0.07614  -0.1769840000
C          C       0.92587   0.88564   0.24277  -0.1779670000
C          C       0.90748   0.63575   0.25720  -0.1769060000
C          C       0.92591   0.56933   0.11771   0.6884870000
C          C       0.90721   0.81937   0.04883   0.6877950000
C          C       0.90742   0.93068   0.21562   0.6886230000
C          C       0.92612   0.68062   0.28450   0.6878370000
H          H       0.95810   0.62401   0.08790   0.1386340000
H          H       0.87504   0.87453   0.07849   0.1388950000
H          H       0.87523   0.87598   0.24543   0.1387330000
H          H       0.95829   0.62547   0.25485   0.1387030000
H          H       0.87672   0.62830   0.08107   0.1437300000
H          H       0.95680   0.87778   0.08588   0.1432450000
H          H       0.95661   0.87171   0.25226   0.1436210000
H          H       0.87653   0.62222   0.24745   0.1434090000
H          H       0.83916   0.73708   0.27910   0.4424580000
H          H       0.99430   0.98773   0.22107   0.4424510000
H          H       0.99417   0.76292   0.05423   0.4421920000
H          H       0.83903   0.51227   0.11227   0.4424700000
Al         Al      0.08333   0.25000   0.33333   1.6838930000
Al         Al      0.08333  -0.00000   0.50000   1.6850460000
Al         Al      0.00000   0.25000   0.33333   1.6905180000
Al         Al      0.00000  -0.00000   0.50000   1.6900610000
O          O       0.02492   0.24925   0.64131  -1.0107690000
O          O       0.14176  -0.00057   0.52536  -1.0108700000
O          O       0.14175   0.25075   0.35869  -1.0105550000
O          O       0.02490   0.00057   0.47463  -1.0108390000
O          O       0.04016   0.20023   0.37380  -0.6085690000
O          O       0.12691   0.44978   0.45994  -0.6080130000
O          O       0.12651   0.29978   0.62619  -0.6086790000
O          O       0.03975   0.05021   0.54006  -0.6078250000
O          O       0.09691   0.19951   0.37372  -0.6024800000
O          O       0.06976   0.44987   0.45940  -0.6038720000
O          O       0.06975   0.30049   0.62628  -0.6023300000
O          O       0.09691   0.05013   0.54060  -0.6039760000
O          O       0.07100   0.05209   0.46146  -0.6054170000
O          O       0.09560   0.30184   0.37201  -0.6048240000
O          O       0.09566   0.44791   0.53854  -0.6056050000
O          O       0.07106   0.19816   0.62799  -0.6047420000
O          O       0.12768   0.05151   0.46141  -0.6088260000
O          O       0.03852   0.30196   0.37144  -0.6084840000
O          O       0.03898   0.44850   0.53859  -0.6087560000
O          O       0.12815   0.19804   0.62856  -0.6087170000
C          C       0.07531   0.18263   0.38418   0.6788140000
C          C       0.09151   0.43263   0.44921   0.6801730000
C          C       0.09135   0.31737   0.61581   0.6787810000
C          C       0.07516   0.06737   0.55079   0.6801270000
C          C       0.09394   0.13772   0.41166  -0.1654940000
C          C       0.07271   0.38787   0.42160  -0.1668710000
C          C       0.07273   0.36228   0.58834  -0.1654870000
C          C       0.09395   0.11213   0.57840  -0.1668820000
C          C       0.07413   0.11436   0.42389  -0.1779550000
C          C       0.09252   0.36426   0.40947  -0.1769840000
C          C       0.09253   0.38564   0.57611  -0.1779670000
C          C       0.07415   0.13575   0.59053  -0.1769060000
C          C       0.09257   0.06933   0.45104   0.6884870000
C          C       0.07388   0.31938   0.38216   0.6877950000
C          C       0.07409   0.43068   0.54896   0.6886230000
C          C       0.09279   0.18062   0.61784   0.6878370000
H          H       0.12477   0.12402   0.42124   0.1386340000
H          H       0.04171   0.37454   0.41182   0.1388950000
H          H       0.04189   0.37598   0.57876   0.1387330000
H          H       0.12496   0.12546   0.58818   0.1387030000
H          H       0.04339   0.12829   0.41440   0.1437300000
H          H       0.12347   0.37778   0.41921   0.1432450000
H          H       0.12327   0.37171   0.58560   0.1436210000
H          H       0.04320   0.12222   0.58079   0.1434090000
H          H       0.00583   0.23708   0.61243   0.4424580000
H          H       0.16097   0.48773   0.55440   0.4424510000
H          H       0.16084   0.26292   0.38757   0.4421920000
H          H       0.00570   0.01227   0.44560   0.4424700000
Al         Al      0.25000   0.25000   0.33333   1.6838930000
Al         Al      0.25000  -0.00000   0.50000   1.6850460000
Al         Al      0.16667   0.25000   0.33333   1.6905180000
Al         Al      0.16667  -0.00000   0.50000   1.6900610000
O          O       0.19158   0.24925   0.64131  -1.0107690000
O          O       0.30843  -0.00057   0.52536  -1.0108700000
O          O       0.30842   0.25075   0.35869  -1.0105550000
O          O       0.19157   0.00057   0.47463  -1.0108390000
O          O       0.20683   0.20023   0.37380  -0.6085690000
O          O       0.29358   0.44978   0.45994  -0.6080130000
O          O       0.29317   0.29978   0.62619  -0.6086790000
O          O       0.20642   0.05021   0.54006  -0.6078250000
O          O       0.26358   0.19951   0.37372  -0.6024800000
O          O       0.23642   0.44987   0.45940  -0.6038720000
O          O       0.23642   0.30049   0.62628  -0.6023300000
O          O       0.26358   0.05013   0.54060  -0.6039760000
O          O       0.23767   0.05209   0.46146  -0.6054170000
O          O       0.26227   0.30184   0.37201  -0.6048240000
O          O       0.26233   0.44791   0.53854  -0.6056050000
O          O       0.23773   0.19816   0.62799  -0.6047420000
O          O       0.29435   0.05151   0.46141  -0.6088260000
O          O       0.20519   0.30196   0.37144  -0.6084840000
O          O       0.20565   0.44850   0.53859  -0.6087560000
O          O       0.29481   0.19804   0.62856  -0.6087170000
C          C       0.24198   0.18263   0.38418   0.6788140000
C          C       0.25817   0.43263   0.44921   0.6801730000
C          C       0.25802   0.31737   0.61581   0.6787810000
C          C       0.24183   0.06737   0.55079   0.6801270000
C          C       0.26060   0.13772   0.41166  -0.1654940000
C          C       0.23938   0.38787   0.42160  -0.1668710000
C          C       0.23940   0.36228   0.58834  -0.1654870000
C          C       0.26062   0.11213   0.57840  -0.1668820000
C          C       0.24080   0.11436   0.42389  -0.1779550000
C          C       0.25918   0.36426   0.40947  -0.1769840000
C          C       0.25920   0.38564   0.57611  -0.1779670000
C          C       0.24081   0.13575   0.59053  -0.1769060000
C          C       0.25924   0.06933   0.45104   0.6884870000
C          C       0.24054   0.31938   0.38216   0.6877950000
C          C       0.24076   0.43068   0.54896   0.6886230000
C          C       0.25945   0.18062   0.61784   0.6878370000
H          H       0.29144   0.12402   0.42124   0.1386340000
H          H       0.20837   0.37454   0.41182   0.1388950000
H          H       0.20856   0.37598   0.57876   0.1387330000
H          H       0.29162   0.12546   0.58818   0.1387030000
H          H       0.21005   0.12829   0.41440   0.1437300000
H          H       0.29013   0.37778   0.41921   0.1432450000
H          H       0.28994   0.37171   0.58560   0.1436210000
H          H       0.20986   0.12222   0.58079   0.1434090000
H          H       0.17249   0.23708   0.61243   0.4424580000
H          H       0.32763   0.48773   0.55440   0.4424510000
H          H       0.32751   0.26292   0.38757   0.4421920000
H          H       0.17236   0.01227   0.44560   0.4424700000
Al         Al      0.41667   0.25000   0.33333   1.6838930000
Al         Al      0.41667  -0.00000   0.50000   1.6850460000
Al         Al      0.33333   0.25000   0.33333   1.6905180000
Al         Al      0.33333  -0.00000   0.50000   1.6900610000
O          O       0.35825   0.24925   0.64131  -1.0107690000
O          O       0.47509  -0.00057   0.52536  -1.0108700000
O          O       0.47508   0.25075   0.35869  -1.0105550000
O          O       0.35824   0.00057   0.47463  -1.0108390000
O          O       0.37349   0.20023   0.37380  -0.6085690000
O          O       0.46025   0.44978   0.45994  -0.6080130000
O          O       0.45984   0.29978   0.62619  -0.6086790000
O          O       0.37308   0.05021   0.54006  -0.6078250000
O          O       0.43024   0.19951   0.37372  -0.6024800000
O          O       0.40309   0.44987   0.45940  -0.6038720000
O          O       0.40309   0.30049   0.62628  -0.6023300000
O          O       0.43024   0.05013   0.54060  -0.6039760000
O          O       0.40434   0.05209   0.46146  -0.6054170000
O          O       0.42894   0.30184   0.37201  -0.6048240000
O          O       0.42900   0.44791   0.53854  -0.6056050000
O          O       0.40440   0.19816   0.62799  -0.6047420000
O          O       0.46102   0.05151   0.46141  -0.6088260000
O          O       0.37185   0.30196   0.37144  -0.6084840000
O          O       0.37231   0.44850   0.53859  -0.6087560000
O          O       0.46148   0.19804   0.62856  -0.6087170000
C          C       0.40864   0.18263   0.38418   0.6788140000
C          C       0.42484   0.43263   0.44921   0.6801730000
C          C       0.42469   0.31737   0.61581   0.6787810000
C          C       0.40849   0.06737   0.55079   0.6801270000
C          C       0.42727   0.13772   0.41166  -0.1654940000
C          C       0.40604   0.38787   0.42160  -0.1668710000
C          C       0.40606   0.36228   0.58834  -0.1654870000
C          C       0.42729   0.11213   0.57840  -0.1668820000
C          C       0.40746   0.11436   0.42389  -0.1779550000
C          C       0.42585   0.36426   0.40947  -0.1769840000
C          C       0.42587   0.38564   0.57611  -0.1779670000
C          C       0.40748   0.13575   0.59053  -0.1769060000
C          C       0.42591   0.06933   0.45104   0.6884870000
C          C       0.40721   0.31938   0.38216   0.6877950000
C          C       0.40742   0.43068   0.54896   0.6886230000
C          C       0.42612   0.18062   0.61784   0.6878370000
H          H       0.45810   0.12402   0.42124   0.1386340000
H          H       0.37504   0.37454   0.41182   0.1388950000
H          H       0.37523   0.37598   0.57876   0.1387330000
H          H       0.45829   0.12546   0.58818   0.1387030000
H          H       0.37672   0.12829   0.41440   0.1437300000
H          H       0.45680   0.37778   0.41921   0.1432450000
H          H       0.45661   0.37171   0.58560   0.1436210000
H          H       0.37653   0.12222   0.58079   0.1434090000
H          H       0.33916   0.23708   0.61243   0.4424580000
H          H       0.49430   0.48773   0.55440   0.4424510000
H          H       0.49417   0.26292   0.38757   0.4421920000
H          H       0.33903   0.01227   0.44560   0.4424700000
Al         Al      0.58333   0.25000   0.33333   1.6838930000
Al         Al      0.58333  -0.00000   0.50000   1.6850460000
Al         Al      0.50000   0.25000   0.33333   1.6905180000
Al         Al      0.50000  -0.00000   0.50000   1.6900610000
O          O       0.52492   0.24925   0.64131  -1.0107690000
O          O       0.64176  -0.00057   0.52536  -1.0108700000
O          O       0.64175   0.25075   0.35869  -1.0105550000
O          O       0.52490   0.00057   0.47463  -1.0108390000
O          O       0.54016   0.20023   0.37380  -0.6085690000
O          O       0.62691   0.44978   0.45994  -0.6080130000
O          O       0.62651   0.29978   0.62619  -0.6086790000
O          O       0.53975   0.05021   0.54006  -0.6078250000
O          O       0.59691   0.19951   0.37372  -0.6024800000
O          O       0.56976   0.44987   0.45940  -0.6038720000
O          O       0.56975   0.30049   0.62628  -0.6023300000
O          O       0.59691   0.05013   0.54060  -0.6039760000
O          O       0.57100   0.05209   0.46146  -0.6054170000
O          O       0.59560   0.30184   0.37201  -0.6048240000
O          O       0.59566   0.44791   0.53854  -0.6056050000
O          O       0.57106   0.19816   0.62799  -0.6047420000
O          O       0.62768   0.05151   0.46141  -0.6088260000
O          O       0.53852   0.30196   0.37144  -0.6084840000
O          O       0.53898   0.44850   0.53859  -0.6087560000
O          O       0.62815   0.19804   0.62856  -0.6087170000
C          C       0.57531   0.18263   0.38418   0.6788140000
C          C       0.59151   0.43263   0.44921   0.6801730000
C          C       0.59135   0.31737   0.61581   0.6787810000
C          C       0.57516   0.06737   0.55079   0.6801270000
C          C       0.59393   0.13772   0.41166  -0.1654940000
C          C       0.57271   0.38787   0.42160  -0.1668710000
C          C       0.57273   0.36228   0.58834  -0.1654870000
C          C       0.59395   0.11213   0.57840  -0.1668820000
C          C       0.57413   0.11436   0.42389  -0.1779550000
C          C       0.59251   0.36426   0.40947  -0.1769840000
C          C       0.59253   0.38564   0.57611  -0.1779670000
C          C       0.57415   0.13575   0.59053  -0.1769060000
C          C       0.59257   0.06933   0.45104   0.6884870000
C          C       0.57388   0.31938   0.38216   0.6877950000
C          C       0.57409   0.43068   0.54896   0.6886230000
C          C       0.59279   0.18062   0.61784   0.6878370000
H          H       0.62477   0.12402   0.42124   0.1386340000
H          H       0.54171   0.37454   0.41182   0.1388950000
H          H       0.54189   0.37598   0.57876   0.1387330000
H          H       0.62496   0.12546   0.58818   0.1387030000
H          H       0.54339   0.12829   0.41440   0.1437300000
H          H       0.62347   0.37778   0.41921   0.1432450000
H          H       0.62328   0.37171   0.58560   0.1436210000
H          H       0.54320   0.12222   0.58079   0.1434090000
H          H       0.50582   0.23708   0.61243   0.4424580000
H          H       0.66097   0.48773   0.55440   0.4424510000
H          H       0.66084   0.26292   0.38757   0.4421920000
H          H       0.50570   0.01227   0.44560   0.4424700000
Al         Al      0.75000   0.25000   0.33333   1.6838930000
Al         Al      0.75000  -0.00000   0.50000   1.6850460000
Al         Al      0.66667   0.25000   0.33333   1.6905180000
Al         Al      0.66667  -0.00000   0.50000   1.6900610000
O          O       0.69158   0.24925   0.64131  -1.0107690000
O          O       0.80843  -0.00057   0.52536  -1.0108700000
O          O       0.80842   0.25075   0.35869  -1.0105550000
O          O       0.69157   0.00057   0.47463  -1.0108390000
O          O       0.70682   0.20023   0.37380  -0.6085690000
O          O       0.79358   0.44978   0.45994  -0.6080130000
O          O       0.79317   0.29978   0.62619  -0.6086790000
O          O       0.70642   0.05021   0.54006  -0.6078250000
O          O       0.76358   0.19951   0.37372  -0.6024800000
O          O       0.73642   0.44987   0.45940  -0.6038720000
O          O       0.73642   0.30049   0.62628  -0.6023300000
O          O       0.76357   0.05013   0.54060  -0.6039760000
O          O       0.73767   0.05209   0.46146  -0.6054170000
O          O       0.76227   0.30184   0.37201  -0.6048240000
O          O       0.76233   0.44791   0.53854  -0.6056050000
O          O       0.73773   0.19816   0.62799  -0.6047420000
O          O       0.79435   0.05151   0.46141  -0.6088260000
O          O       0.70519   0.30196   0.37144  -0.6084840000
O          O       0.70565   0.44850   0.53859  -0.6087560000
O          O       0.79481   0.19804   0.62856  -0.6087170000
C          C       0.74198   0.18263   0.38418   0.6788140000
C          C       0.75817   0.43263   0.44921   0.6801730000
C          C       0.75802   0.31737   0.61581   0.6787810000
C          C       0.74182   0.06737   0.55079   0.6801270000
C          C       0.76060   0.13772   0.41166  -0.1654940000
C          C       0.73938   0.38787   0.42160  -0.1668710000
C          C       0.73940   0.36228   0.58834  -0.1654870000
C          C       0.76062   0.11213   0.57840  -0.1668820000
C          C       0.74080   0.11436   0.42389  -0.1779550000
C          C       0.75918   0.36426   0.40947  -0.1769840000
C          C       0.75920   0.38564   0.57611  -0.1779670000
C          C       0.74082   0.13575   0.59053  -0.1769060000
C          C       0.75924   0.06933   0.45104   0.6884870000
C          C       0.74055   0.31938   0.38216   0.6877950000
C          C       0.74076   0.43068   0.54896   0.6886230000
C          C       0.75945   0.18062   0.61784   0.6878370000
H          H       0.79144   0.12402   0.42124   0.1386340000
H          H       0.70837   0.37454   0.41182   0.1388950000
H          H       0.70856   0.37598   0.57876   0.1387330000
H          H       0.79162   0.12546   0.58818   0.1387030000
H          H       0.71005   0.12829   0.41440   0.1437300000
H          H       0.79014   0.37778   0.41921   0.1432450000
H          H       0.78994   0.37171   0.58560   0.1436210000
H          H       0.70986   0.12222   0.58079   0.1434090000
H          H       0.67249   0.23708   0.61243   0.4424580000
H          H       0.82763   0.48773   0.55440   0.4424510000
H          H       0.82751   0.26292   0.38757   0.4421920000
H          H       0.67236   0.01227   0.44560   0.4424700000
Al         Al      0.91667   0.25000   0.33333   1.6838930000
Al         Al      0.91667  -0.00000   0.50000   1.6850460000
Al         Al      0.83333   0.25000   0.33333   1.6905180000
Al         Al      0.83333  -0.00000   0.50000   1.6900610000
O          O       0.85825   0.24925   0.64131  -1.0107690000
O          O       0.97509  -0.00057   0.52536  -1.0108700000
O          O       0.97508   0.25075   0.35869  -1.0105550000
O          O       0.85824   0.00057   0.47463  -1.0108390000
O          O       0.87349   0.20023   0.37380  -0.6085690000
O          O       0.96025   0.44978   0.45994  -0.6080130000
O          O       0.95984   0.29978   0.62619  -0.6086790000
O          O       0.87308   0.05021   0.54006  -0.6078250000
O          O       0.93024   0.19951   0.37372  -0.6024800000
O          O       0.90309   0.44987   0.45940  -0.6038720000
O          O       0.90309   0.30049   0.62628  -0.6023300000
O          O       0.93024   0.05013   0.54060  -0.6039760000
O          O       0.90434   0.05209   0.46146  -0.6054170000
O          O       0.92894   0.30184   0.37201  -0.6048240000
O          O       0.92899   0.44791   0.53854  -0.6056050000
O          O       0.90440   0.19816   0.62799  -0.6047420000
O          O       0.96102   0.05151   0.46141  -0.6088260000
O          O       0.87185   0.30196   0.37144  -0.6084840000
O          O       0.87231   0.44850   0.53859  -0.6087560000
O          O       0.96148   0.19804   0.62856  -0.6087170000
C          C       0.90864   0.18263   0.38418   0.6788140000
C          C       0.92484   0.43263   0.44921   0.6801730000
C          C       0.92469   0.31737   0.61581   0.6787810000
C          C       0.90849   0.06737   0.55079   0.6801270000
C          C       0.92727   0.13772   0.41166  -0.1654940000
C          C       0.90605   0.38787   0.42160  -0.1668710000
C          C       0.90606   0.36228   0.58834  -0.1654870000
C          C       0.92729   0.11213   0.57840  -0.1668820000
C          C       0.90746   0.11436   0.42389  -0.1779550000
C          C       0.92585   0.36426   0.40947  -0.1769840000
C          C       0.92587   0.38564   0.57611  -0.1779670000
C          C       0.90748   0.13575   0.59053  -0.1769060000
C          C       0.92591   0.06933   0.45104   0.6884870000
C          C       0.90721   0.31938   0.38216   0.6877950000
C          C       0.90742   0.43068   0.54896   0.6886230000
C          C       0.92612   0.18062   0.61784   0.6878370000
H          H       0.95810   0.12402   0.42124   0.1386340000
H          H       0.87504   0.37454   0.41182   0.1388950000
H          H       0.87523   0.37598   0.57876   0.1387330000
H          H       0.95829   0.12546   0.58818   0.1387030000
H          H       0.87672   0.12829   0.41440   0.1437300000
H          H       0.95680   0.37778   0.41921   0.1432450000
H          H       0.95661   0.37171   0.58560   0.1436210000
H          H       0.87653   0.12222   0.58079   0.1434090000
H          H       0.83916   0.23708   0.61243   0.4424580000
H          H       0.99430   0.48773   0.55440   0.4424510000
H          H       0.99417   0.26292   0.38757   0.4421920000
H          H       0.83903   0.01227   0.44560   0.4424700000
Al         Al      0.08333   0.75000   0.33333   1.6838930000
Al         Al      0.08333   0.50000   0.50000   1.6850460000
Al         Al      0.00000   0.75000   0.33333   1.6905180000
Al         Al      0.00000   0.50000   0.50000   1.6900610000
O          O       0.02492   0.74925   0.64131  -1.0107690000
O          O       0.14176   0.49943   0.52536  -1.0108700000
O          O       0.14175   0.75074   0.35869  -1.0105550000
O          O       0.02490   0.50057   0.47463  -1.0108390000
O          O       0.04016   0.70022   0.37380  -0.6085690000
O          O       0.12691   0.94978   0.45994  -0.6080130000
O          O       0.12651   0.79977   0.62619  -0.6086790000
O          O       0.03975   0.55022   0.54006  -0.6078250000
O          O       0.09691   0.69951   0.37372  -0.6024800000
O          O       0.06976   0.94987   0.45940  -0.6038720000
O          O       0.06975   0.80049   0.62628  -0.6023300000
O          O       0.09691   0.55013   0.54060  -0.6039760000
O          O       0.07100   0.55209   0.46146  -0.6054170000
O          O       0.09560   0.80184   0.37201  -0.6048240000
O          O       0.09566   0.94791   0.53854  -0.6056050000
O          O       0.07106   0.69815   0.62799  -0.6047420000
O          O       0.12768   0.55151   0.46141  -0.6088260000
O          O       0.03852   0.80196   0.37144  -0.6084840000
O          O       0.03898   0.94850   0.53859  -0.6087560000
O          O       0.12815   0.69804   0.62856  -0.6087170000
C          C       0.07531   0.68263   0.38418   0.6788140000
C          C       0.09151   0.93262   0.44921   0.6801730000
C          C       0.09135   0.81737   0.61581   0.6787810000
C          C       0.07516   0.56737   0.55079   0.6801270000
C          C       0.09394   0.63772   0.41166  -0.1654940000
C          C       0.07271   0.88787   0.42160  -0.1668710000
C          C       0.07273   0.86228   0.58834  -0.1654870000
C          C       0.09395   0.61213   0.57840  -0.1668820000
C          C       0.07413   0.61436   0.42389  -0.1779550000
C          C       0.09252   0.86425   0.40947  -0.1769840000
C          C       0.09253   0.88564   0.57611  -0.1779670000
C          C       0.07415   0.63575   0.59053  -0.1769060000
C          C       0.09257   0.56933   0.45104   0.6884870000
C          C       0.07388   0.81937   0.38216   0.6877950000
C          C       0.07409   0.93068   0.54896   0.6886230000
C          C       0.09279   0.68062   0.61784   0.6878370000
H          H       0.12477   0.62401   0.42124   0.1386340000
H          H       0.04171   0.87453   0.41182   0.1388950000
H          H       0.04189   0.87598   0.57876   0.1387330000
H          H       0.12496   0.62547   0.58818   0.1387030000
H          H       0.04339   0.62829   0.41440   0.1437300000
H          H       0.12347   0.87778   0.41921   0.1432450000
H          H       0.12327   0.87171   0.58560   0.1436210000
H          H       0.04320   0.62222   0.58079   0.1434090000
H          H       0.00583   0.73707   0.61243   0.4424580000
H          H       0.16097   0.98772   0.55440   0.4424510000
H          H       0.16084   0.76292   0.38757   0.4421920000
H          H       0.00570   0.51227   0.44560   0.4424700000
Al         Al      0.25000   0.75000   0.33333   1.6838930000
Al         Al      0.25000   0.50000   0.50000   1.6850460000
Al         Al      0.16667   0.75000   0.33333   1.6905180000
Al         Al      0.16667   0.50000   0.50000   1.6900610000
O          O       0.19158   0.74925   0.64131  -1.0107690000
O          O       0.30843   0.49943   0.52536  -1.0108700000
O          O       0.30842   0.75074   0.35869  -1.0105550000
O          O       0.19157   0.50057   0.47463  -1.0108390000
O          O       0.20683   0.70022   0.37380  -0.6085690000
O          O       0.29358   0.94978   0.45994  -0.6080130000
O          O       0.29317   0.79977   0.62619  -0.6086790000
O          O       0.20642   0.55022   0.54006  -0.6078250000
O          O       0.26358   0.69951   0.37372  -0.6024800000
O          O       0.23642   0.94987   0.45940  -0.6038720000
O          O       0.23642   0.80049   0.62628  -0.6023300000
O          O       0.26358   0.55013   0.54060  -0.6039760000
O          O       0.23767   0.55209   0.46146  -0.6054170000
O          O       0.26227   0.80184   0.37201  -0.6048240000
O          O       0.26233   0.94791   0.53854  -0.6056050000
O          O       0.23773   0.69815   0.62799  -0.6047420000
O          O       0.29435   0.55151   0.46141  -0.6088260000
O          O       0.20519   0.80196   0.37144  -0.6084840000
O          O       0.20565   0.94850   0.53859  -0.6087560000
O          O       0.29481   0.69804   0.62856  -0.6087170000
C          C       0.24198   0.68263   0.38418   0.6788140000
C          C       0.25817   0.93262   0.44921   0.6801730000
C          C       0.25802   0.81737   0.61581   0.6787810000
C          C       0.24183   0.56737   0.55079   0.6801270000
C          C       0.26060   0.63772   0.41166  -0.1654940000
C          C       0.23938   0.88787   0.42160  -0.1668710000
C          C       0.23940   0.86228   0.58834  -0.1654870000
C          C       0.26062   0.61213   0.57840  -0.1668820000
C          C       0.24080   0.61436   0.42389  -0.1779550000
C          C       0.25918   0.86425   0.40947  -0.1769840000
C          C       0.25920   0.88564   0.57611  -0.1779670000
C          C       0.24081   0.63575   0.59053  -0.1769060000
C          C       0.25924   0.56933   0.45104   0.6884870000
C          C       0.24054   0.81937   0.38216   0.6877950000
C          C       0.24076   0.93068   0.54896   0.6886230000
C          C       0.25945   0.68062   0.61784   0.6878370000
H          H       0.29144   0.62401   0.42124   0.1386340000
H          H       0.20837   0.87453   0.41182   0.1388950000
H          H       0.20856   0.87598   0.57876   0.1387330000
H          H       0.29162   0.62547   0.58818   0.1387030000
H          H       0.21005   0.62829   0.41440   0.1437300000
H          H       0.29013   0.87778   0.41921   0.1432450000
H          H       0.28994   0.87171   0.58560   0.1436210000
H          H       0.20986   0.62222   0.58079   0.1434090000
H          H       0.17249   0.73707   0.61243   0.4424580000
H          H       0.32763   0.98772   0.55440   0.4424510000
H          H       0.32751   0.76292   0.38757   0.4421920000
H          H       0.17236   0.51227   0.44560   0.4424700000
Al         Al      0.41667   0.75000   0.33333   1.6838930000
Al         Al      0.41667   0.50000   0.50000   1.6850460000
Al         Al      0.33333   0.75000   0.33333   1.6905180000
Al         Al      0.33333   0.50000   0.50000   1.6900610000
O          O       0.35825   0.74925   0.64131  -1.0107690000
O          O       0.47509   0.49943   0.52536  -1.0108700000
O          O       0.47508   0.75074   0.35869  -1.0105550000
O          O       0.35824   0.50057   0.47463  -1.0108390000
O          O       0.37349   0.70022   0.37380  -0.6085690000
O          O       0.46025   0.94978   0.45994  -0.6080130000
O          O       0.45984   0.79977   0.62619  -0.6086790000
O          O       0.37308   0.55022   0.54006  -0.6078250000
O          O       0.43024   0.69951   0.37372  -0.6024800000
O          O       0.40309   0.94987   0.45940  -0.6038720000
O          O       0.40309   0.80049   0.62628  -0.6023300000
O          O       0.43024   0.55013   0.54060  -0.6039760000
O          O       0.40434   0.55209   0.46146  -0.6054170000
O          O       0.42894   0.80184   0.37201  -0.6048240000
O          O       0.42900   0.94791   0.53854  -0.6056050000
O          O       0.40440   0.69815   0.62799  -0.6047420000
O          O       0.46102   0.55151   0.46141  -0.6088260000
O          O       0.37185   0.80196   0.37144  -0.6084840000
O          O       0.37231   0.94850   0.53859  -0.6087560000
O          O       0.46148   0.69804   0.62856  -0.6087170000
C          C       0.40865   0.68263   0.38418   0.6788140000
C          C       0.42484   0.93262   0.44921   0.6801730000
C          C       0.42469   0.81737   0.61581   0.6787810000
C          C       0.40849   0.56737   0.55079   0.6801270000
C          C       0.42727   0.63772   0.41166  -0.1654940000
C          C       0.40604   0.88787   0.42160  -0.1668710000
C          C       0.40606   0.86228   0.58834  -0.1654870000
C          C       0.42729   0.61213   0.57840  -0.1668820000
C          C       0.40746   0.61436   0.42389  -0.1779550000
C          C       0.42585   0.86425   0.40947  -0.1769840000
C          C       0.42587   0.88564   0.57611  -0.1779670000
C          C       0.40748   0.63575   0.59053  -0.1769060000
C          C       0.42591   0.56933   0.45104   0.6884870000
C          C       0.40721   0.81937   0.38216   0.6877950000
C          C       0.40742   0.93068   0.54896   0.6886230000
C          C       0.42612   0.68062   0.61784   0.6878370000
H          H       0.45810   0.62401   0.42124   0.1386340000
H          H       0.37504   0.87453   0.41182   0.1388950000
H          H       0.37523   0.87598   0.57876   0.1387330000
H          H       0.45829   0.62547   0.58818   0.1387030000
H          H       0.37672   0.62829   0.41440   0.1437300000
H          H       0.45680   0.87778   0.41921   0.1432450000
H          H       0.45661   0.87171   0.58560   0.1436210000
H          H       0.37653   0.62222   0.58079   0.1434090000
H          H       0.33916   0.73707   0.61243   0.4424580000
H          H       0.49430   0.98772   0.55440   0.4424510000
H          H       0.49417   0.76292   0.38757   0.4421920000
H          H       0.33903   0.51227   0.44560   0.4424700000
Al         Al      0.58333   0.75000   0.33333   1.6838930000
Al         Al      0.58333   0.50000   0.50000   1.6850460000
Al         Al      0.50000   0.75000   0.33333   1.6905180000
Al         Al      0.50000   0.50000   0.50000   1.6900610000
O          O       0.52492   0.74925   0.64131  -1.0107690000
O          O       0.64176   0.49943   0.52536  -1.0108700000
O          O       0.64175   0.75074   0.35869  -1.0105550000
O          O       0.52490   0.50057   0.47463  -1.0108390000
O          O       0.54016   0.70022   0.37380  -0.6085690000
O          O       0.62691   0.94978   0.45994  -0.6080130000
O          O       0.62651   0.79977   0.62619  -0.6086790000
O          O       0.53975   0.55022   0.54006  -0.6078250000
O          O       0.59691   0.69951   0.37372  -0.6024800000
O          O       0.56976   0.94987   0.45940  -0.6038720000
O          O       0.56975   0.80049   0.62628  -0.6023300000
O          O       0.59691   0.55013   0.54060  -0.6039760000
O          O       0.57100   0.55209   0.46146  -0.6054170000
O          O       0.59560   0.80184   0.37201  -0.6048240000
O          O       0.59566   0.94791   0.53854  -0.6056050000
O          O       0.57106   0.69815   0.62799  -0.6047420000
O          O       0.62768   0.55151   0.46141  -0.6088260000
O          O       0.53852   0.80196   0.37144  -0.6084840000
O          O       0.53898   0.94850   0.53859  -0.6087560000
O          O       0.62815   0.69804   0.62856  -0.6087170000
C          C       0.57531   0.68263   0.38418   0.6788140000
C          C       0.59151   0.93262   0.44921   0.6801730000
C          C       0.59135   0.81737   0.61581   0.6787810000
C          C       0.57516   0.56737   0.55079   0.6801270000
C          C       0.59393   0.63772   0.41166  -0.1654940000
C          C       0.57271   0.88787   0.42160  -0.1668710000
C          C       0.57273   0.86228   0.58834  -0.1654870000
C          C       0.59395   0.61213   0.57840  -0.1668820000
C          C       0.57413   0.61436   0.42389  -0.1779550000
C          C       0.59251   0.86425   0.40947  -0.1769840000
C          C       0.59253   0.88564   0.57611  -0.1779670000
C          C       0.57415   0.63575   0.59053  -0.1769060000
C          C       0.59257   0.56933   0.45104   0.6884870000
C          C       0.57388   0.81937   0.38216   0.6877950000
C          C       0.57409   0.93068   0.54896   0.6886230000
C          C       0.59279   0.68062   0.61784   0.6878370000
H          H       0.62477   0.62401   0.42124   0.1386340000
H          H       0.54171   0.87453   0.41182   0.1388950000
H          H       0.54189   0.87598   0.57876   0.1387330000
H          H       0.62496   0.62547   0.58818   0.1387030000
H          H       0.54339   0.62829   0.41440   0.1437300000
H          H       0.62347   0.87778   0.41921   0.1432450000
H          H       0.62327   0.87171   0.58560   0.1436210000
H          H       0.54320   0.62222   0.58079   0.1434090000
H          H       0.50582   0.73707   0.61243   0.4424580000
H          H       0.66097   0.98772   0.55440   0.4424510000
H          H       0.66084   0.76292   0.38757   0.4421920000
H          H       0.50570   0.51227   0.44560   0.4424700000
Al         Al      0.75000   0.75000   0.33333   1.6838930000
Al         Al      0.75000   0.50000   0.50000   1.6850460000
Al         Al      0.66667   0.75000   0.33333   1.6905180000
Al         Al      0.66667   0.50000   0.50000   1.6900610000
O          O       0.69158   0.74925   0.64131  -1.0107690000
O          O       0.80843   0.49943   0.52536  -1.0108700000
O          O       0.80842   0.75074   0.35869  -1.0105550000
O          O       0.69157   0.50057   0.47463  -1.0108390000
O          O       0.70682   0.70022   0.37380  -0.6085690000
O          O       0.79358   0.94978   0.45994  -0.6080130000
O          O       0.79317   0.79977   0.62619  -0.6086790000
O          O       0.70642   0.55022   0.54006  -0.6078250000
O          O       0.76358   0.69951   0.37372  -0.6024800000
O          O       0.73642   0.94987   0.45940  -0.6038720000
O          O       0.73642   0.80049   0.62628  -0.6023300000
O          O       0.76357   0.55013   0.54060  -0.6039760000
O          O       0.73767   0.55209   0.46146  -0.6054170000
O          O       0.76227   0.80184   0.37201  -0.6048240000
O          O       0.76233   0.94791   0.53854  -0.6056050000
O          O       0.73773   0.69815   0.62799  -0.6047420000
O          O       0.79435   0.55151   0.46141  -0.6088260000
O          O       0.70519   0.80196   0.37144  -0.6084840000
O          O       0.70565   0.94850   0.53859  -0.6087560000
O          O       0.79481   0.69804   0.62856  -0.6087170000
C          C       0.74198   0.68263   0.38418   0.6788140000
C          C       0.75817   0.93262   0.44921   0.6801730000
C          C       0.75802   0.81737   0.61581   0.6787810000
C          C       0.74182   0.56737   0.55079   0.6801270000
C          C       0.76060   0.63772   0.41166  -0.1654940000
C          C       0.73938   0.88787   0.42160  -0.1668710000
C          C       0.73940   0.86228   0.58834  -0.1654870000
C          C       0.76062   0.61213   0.57840  -0.1668820000
C          C       0.74080   0.61436   0.42389  -0.1779550000
C          C       0.75918   0.86425   0.40947  -0.1769840000
C          C       0.75920   0.88564   0.57611  -0.1779670000
C          C       0.74081   0.63575   0.59053  -0.1769060000
C          C       0.75924   0.56933   0.45104   0.6884870000
C          C       0.74055   0.81937   0.38216   0.6877950000
C          C       0.74076   0.93068   0.54896   0.6886230000
C          C       0.75945   0.68062   0.61784   0.6878370000
H          H       0.79144   0.62401   0.42124   0.1386340000
H          H       0.70837   0.87453   0.41182   0.1388950000
H          H       0.70856   0.87598   0.57876   0.1387330000
H          H       0.79162   0.62547   0.58818   0.1387030000
H          H       0.71005   0.62829   0.41440   0.1437300000
H          H       0.79014   0.87778   0.41921   0.1432450000
H          H       0.78994   0.87171   0.58560   0.1436210000
H          H       0.70986   0.62222   0.58079   0.1434090000
H          H       0.67249   0.73707   0.61243   0.4424580000
H          H       0.82763   0.98772   0.55440   0.4424510000
H          H       0.82751   0.76292   0.38757   0.4421920000
H          H       0.67236   0.51227   0.44560   0.4424700000
Al         Al      0.91667   0.75000   0.33333   1.6838930000
Al         Al      0.91667   0.50000   0.50000   1.6850460000
Al         Al      0.83333   0.75000   0.33333   1.6905180000
Al         Al      0.83333   0.50000   0.50000   1.6900610000
O          O       0.85825   0.74925   0.64131  -1.0107690000
O          O       0.97509   0.49943   0.52536  -1.0108700000
O          O       0.97508   0.75074   0.35869  -1.0105550000
O          O       0.85824   0.50057   0.47463  -1.0108390000
O          O       0.87349   0.70022   0.37380  -0.6085690000
O          O       0.96025   0.94978   0.45994  -0.6080130000
O          O       0.95984   0.79977   0.62619  -0.6086790000
O          O       0.87308   0.55022   0.54006  -0.6078250000
O          O       0.93024   0.69951   0.37372  -0.6024800000
O          O       0.90309   0.94987   0.45940  -0.6038720000
O          O       0.90309   0.80049   0.62628  -0.6023300000
O          O       0.93024   0.55013   0.54060  -0.6039760000
O          O       0.90434   0.55209   0.46146  -0.6054170000
O          O       0.92894   0.80184   0.37201  -0.6048240000
O          O       0.92899   0.94791   0.53854  -0.6056050000
O          O       0.90439   0.69815   0.62799  -0.6047420000
O          O       0.96102   0.55151   0.46141  -0.6088260000
O          O       0.87185   0.80196   0.37144  -0.6084840000
O          O       0.87231   0.94850   0.53859  -0.6087560000
O          O       0.96148   0.69804   0.62856  -0.6087170000
C          C       0.90864   0.68263   0.38418   0.6788140000
C          C       0.92484   0.93262   0.44921   0.6801730000
C          C       0.92469   0.81737   0.61581   0.6787810000
C          C       0.90849   0.56737   0.55079   0.6801270000
C          C       0.92727   0.63772   0.41166  -0.1654940000
C          C       0.90604   0.88787   0.42160  -0.1668710000
C          C       0.90606   0.86228   0.58834  -0.1654870000
C          C       0.92729   0.61213   0.57840  -0.1668820000
C          C       0.90746   0.61436   0.42389  -0.1779550000
C          C       0.92585   0.86425   0.40947  -0.1769840000
C          C       0.92587   0.88564   0.57611  -0.1779670000
C          C       0.90748   0.63575   0.59053  -0.1769060000
C          C       0.92591   0.56933   0.45104   0.6884870000
C          C       0.90721   0.81937   0.38216   0.6877950000
C          C       0.90742   0.93068   0.54896   0.6886230000
C          C       0.92612   0.68062   0.61784   0.6878370000
H          H       0.95810   0.62401   0.42124   0.1386340000
H          H       0.87504   0.87453   0.41182   0.1388950000
H          H       0.87523   0.87598   0.57876   0.1387330000
H          H       0.95829   0.62547   0.58818   0.1387030000
H          H       0.87672   0.62829   0.41440   0.1437300000
H          H       0.95680   0.87778   0.41921   0.1432450000
H          H       0.95661   0.87171   0.58560   0.1436210000
H          H       0.87653   0.62222   0.58079   0.1434090000
H          H       0.83916   0.73707   0.61243   0.4424580000
H          H       0.99430   0.98772   0.55440   0.4424510000
H          H       0.99417   0.76292   0.38757   0.4421920000
H          H       0.83903   0.51227   0.44560   0.4424700000
Al         Al      0.08333   0.25000   0.66667   1.6838930000
Al         Al      0.08333   0.00000   0.83333   1.6850460000
Al         Al      0.00000   0.25000   0.66667   1.6905180000
Al         Al      0.00000   0.00000   0.83333   1.6900610000
O          O       0.02492   0.24925   0.97464  -1.0107690000
O          O       0.14176  -0.00057   0.85870  -1.0108700000
O          O       0.14175   0.25074   0.69203  -1.0105550000
O          O       0.02490   0.00057   0.80797  -1.0108390000
O          O       0.04016   0.20023   0.70714  -0.6085690000
O          O       0.12691   0.44978   0.79327  -0.6080130000
O          O       0.12651   0.29978   0.95953  -0.6086790000
O          O       0.03975   0.05022   0.87339  -0.6078250000
O          O       0.09691   0.19951   0.70705  -0.6024800000
O          O       0.06976   0.44987   0.79273  -0.6038720000
O          O       0.06975   0.30049   0.95961  -0.6023300000
O          O       0.09691   0.05013   0.87394  -0.6039760000
O          O       0.07100   0.05209   0.79479  -0.6054170000
O          O       0.09560   0.30184   0.70534  -0.6048240000
O          O       0.09566   0.44791   0.87187  -0.6056050000
O          O       0.07106   0.19816   0.96132  -0.6047420000
O          O       0.12768   0.05150   0.79475  -0.6088260000
O          O       0.03852   0.30196   0.70477  -0.6084840000
O          O       0.03898   0.44849   0.87192  -0.6087560000
O          O       0.12814   0.19804   0.96189  -0.6087170000
C          C       0.07531   0.18263   0.71752   0.6788140000
C          C       0.09151   0.43263   0.78255   0.6801730000
C          C       0.09135   0.31737   0.94915   0.6787810000
C          C       0.07516   0.06737   0.88412   0.6801270000
C          C       0.09394   0.13772   0.74499  -0.1654940000
C          C       0.07271   0.38787   0.75494  -0.1668710000
C          C       0.07273   0.36228   0.92167  -0.1654870000
C          C       0.09395   0.11213   0.91173  -0.1668820000
C          C       0.07413   0.11436   0.75722  -0.1779550000
C          C       0.09252   0.36426   0.74280  -0.1769840000
C          C       0.09253   0.38564   0.90944  -0.1779670000
C          C       0.07415   0.13575   0.92386  -0.1769060000
C          C       0.09257   0.06932   0.78438   0.6884870000
C          C       0.07388   0.31938   0.71549   0.6877950000
C          C       0.07409   0.43067   0.88229   0.6886230000
C          C       0.09278   0.18062   0.95117   0.6878370000
H          H       0.12477   0.12402   0.75457   0.1386340000
H          H       0.04171   0.37454   0.74515   0.1388950000
H          H       0.04189   0.37598   0.91209   0.1387330000
H          H       0.12496   0.12546   0.92151   0.1387030000
H          H       0.04339   0.12829   0.74774   0.1437300000
H          H       0.12347   0.37778   0.75255   0.1432450000
H          H       0.12328   0.37171   0.91893   0.1436210000
H          H       0.04320   0.12222   0.91412   0.1434090000
H          H       0.00582   0.23708   0.94576   0.4424580000
H          H       0.16097   0.48773   0.88773   0.4424510000
H          H       0.16084   0.26292   0.72090   0.4421920000
H          H       0.00570   0.01227   0.77893   0.4424700000
Al         Al      0.25000   0.25000   0.66667   1.6838930000
Al         Al      0.25000   0.00000   0.83333   1.6850460000
Al         Al      0.16667   0.25000   0.66667   1.6905180000
Al         Al      0.16667   0.00000   0.83333   1.6900610000
O          O       0.19158   0.24925   0.97464  -1.0107690000
O          O       0.30843  -0.00057   0.85870  -1.0108700000
O          O       0.30842   0.25074   0.69203  -1.0105550000
O          O       0.19157   0.00057   0.80797  -1.0108390000
O          O       0.20682   0.20023   0.70714  -0.6085690000
O          O       0.29358   0.44978   0.79327  -0.6080130000
O          O       0.29317   0.29978   0.95953  -0.6086790000
O          O       0.20642   0.05022   0.87339  -0.6078250000
O          O       0.26358   0.19951   0.70705  -0.6024800000
O          O       0.23642   0.44987   0.79273  -0.6038720000
O          O       0.23642   0.30049   0.95961  -0.6023300000
O          O       0.26358   0.05013   0.87394  -0.6039760000
O          O       0.23767   0.05209   0.79479  -0.6054170000
O          O       0.26227   0.30184   0.70534  -0.6048240000
O          O       0.26233   0.44791   0.87187  -0.6056050000
O          O       0.23773   0.19816   0.96132  -0.6047420000
O          O       0.29435   0.05150   0.79475  -0.6088260000
O          O       0.20519   0.30196   0.70477  -0.6084840000
O          O       0.20565   0.44849   0.87192  -0.6087560000
O          O       0.29481   0.19804   0.96189  -0.6087170000
C          C       0.24198   0.18263   0.71752   0.6788140000
C          C       0.25817   0.43263   0.78255   0.6801730000
C          C       0.25802   0.31737   0.94915   0.6787810000
C          C       0.24182   0.06737   0.88412   0.6801270000
C          C       0.26060   0.13772   0.74499  -0.1654940000
C          C       0.23938   0.38787   0.75494  -0.1668710000
C          C       0.23940   0.36228   0.92167  -0.1654870000
C          C       0.26062   0.11213   0.91173  -0.1668820000
C          C       0.24080   0.11436   0.75722  -0.1779550000
C          C       0.25918   0.36426   0.74280  -0.1769840000
C          C       0.25920   0.38564   0.90944  -0.1779670000
C          C       0.24082   0.13575   0.92386  -0.1769060000
C          C       0.25924   0.06932   0.78438   0.6884870000
C          C       0.24054   0.31938   0.71549   0.6877950000
C          C       0.24076   0.43067   0.88229   0.6886230000
C          C       0.25945   0.18062   0.95117   0.6878370000
H          H       0.29144   0.12402   0.75457   0.1386340000
H          H       0.20838   0.37454   0.74515   0.1388950000
H          H       0.20856   0.37598   0.91209   0.1387330000
H          H       0.29162   0.12546   0.92151   0.1387030000
H          H       0.21006   0.12829   0.74774   0.1437300000
H          H       0.29014   0.37778   0.75255   0.1432450000
H          H       0.28994   0.37171   0.91893   0.1436210000
H          H       0.20986   0.12222   0.91412   0.1434090000
H          H       0.17249   0.23708   0.94576   0.4424580000
H          H       0.32763   0.48773   0.88773   0.4424510000
H          H       0.32751   0.26292   0.72090   0.4421920000
H          H       0.17237   0.01227   0.77893   0.4424700000
Al         Al      0.41667   0.25000   0.66667   1.6838930000
Al         Al      0.41667   0.00000   0.83333   1.6850460000
Al         Al      0.33333   0.25000   0.66667   1.6905180000
Al         Al      0.33333   0.00000   0.83333   1.6900610000
O          O       0.35825   0.24925   0.97464  -1.0107690000
O          O       0.47509  -0.00057   0.85870  -1.0108700000
O          O       0.47508   0.25074   0.69203  -1.0105550000
O          O       0.35824   0.00057   0.80797  -1.0108390000
O          O       0.37349   0.20023   0.70714  -0.6085690000
O          O       0.46025   0.44978   0.79327  -0.6080130000
O          O       0.45984   0.29978   0.95953  -0.6086790000
O          O       0.37308   0.05022   0.87339  -0.6078250000
O          O       0.43024   0.19951   0.70705  -0.6024800000
O          O       0.40309   0.44987   0.79273  -0.6038720000
O          O       0.40309   0.30049   0.95961  -0.6023300000
O          O       0.43024   0.05013   0.87394  -0.6039760000
O          O       0.40434   0.05209   0.79479  -0.6054170000
O          O       0.42894   0.30184   0.70534  -0.6048240000
O          O       0.42899   0.44791   0.87187  -0.6056050000
O          O       0.40440   0.19816   0.96132  -0.6047420000
O          O       0.46102   0.05150   0.79475  -0.6088260000
O          O       0.37185   0.30196   0.70477  -0.6084840000
O          O       0.37231   0.44849   0.87192  -0.6087560000
O          O       0.46148   0.19804   0.96189  -0.6087170000
C          C       0.40865   0.18263   0.71752   0.6788140000
C          C       0.42484   0.43263   0.78255   0.6801730000
C          C       0.42469   0.31737   0.94915   0.6787810000
C          C       0.40849   0.06737   0.88412   0.6801270000
C          C       0.42727   0.13772   0.74499  -0.1654940000
C          C       0.40604   0.38787   0.75494  -0.1668710000
C          C       0.40606   0.36228   0.92167  -0.1654870000
C          C       0.42729   0.11213   0.91173  -0.1668820000
C          C       0.40746   0.11436   0.75722  -0.1779550000
C          C       0.42585   0.36426   0.74280  -0.1769840000
C          C       0.42587   0.38564   0.90944  -0.1779670000
C          C       0.40748   0.13575   0.92386  -0.1769060000
C          C       0.42591   0.06932   0.78438   0.6884870000
C          C       0.40721   0.31938   0.71549   0.6877950000
C          C       0.40742   0.43067   0.88229   0.6886230000
C          C       0.42612   0.18062   0.95117   0.6878370000
H          H       0.45810   0.12402   0.75457   0.1386340000
H          H       0.37504   0.37454   0.74515   0.1388950000
H          H       0.37523   0.37598   0.91209   0.1387330000
H          H       0.45829   0.12546   0.92151   0.1387030000
H          H       0.37672   0.12829   0.74774   0.1437300000
H          H       0.45680   0.37778   0.75255   0.1432450000
H          H       0.45661   0.37171   0.91893   0.1436210000
H          H       0.37653   0.12222   0.91412   0.1434090000
H          H       0.33916   0.23708   0.94576   0.4424580000
H          H       0.49430   0.48773   0.88773   0.4424510000
H          H       0.49417   0.26292   0.72090   0.4421920000
H          H       0.33903   0.01227   0.77893   0.4424700000
Al         Al      0.58333   0.25000   0.66667   1.6838930000
Al         Al      0.58333   0.00000   0.83333   1.6850460000
Al         Al      0.50000   0.25000   0.66667   1.6905180000
Al         Al      0.50000   0.00000   0.83333   1.6900610000
O          O       0.52492   0.24925   0.97464  -1.0107690000
O          O       0.64176  -0.00057   0.85870  -1.0108700000
O          O       0.64175   0.25074   0.69203  -1.0105550000
O          O       0.52490   0.00057   0.80797  -1.0108390000
O          O       0.54016   0.20023   0.70714  -0.6085690000
O          O       0.62691   0.44978   0.79327  -0.6080130000
O          O       0.62651   0.29978   0.95953  -0.6086790000
O          O       0.53975   0.05022   0.87339  -0.6078250000
O          O       0.59691   0.19951   0.70705  -0.6024800000
O          O       0.56976   0.44987   0.79273  -0.6038720000
O          O       0.56975   0.30049   0.95961  -0.6023300000
O          O       0.59691   0.05013   0.87394  -0.6039760000
O          O       0.57100   0.05209   0.79479  -0.6054170000
O          O       0.59560   0.30184   0.70534  -0.6048240000
O          O       0.59566   0.44791   0.87187  -0.6056050000
O          O       0.57106   0.19816   0.96132  -0.6047420000
O          O       0.62768   0.05150   0.79475  -0.6088260000
O          O       0.53852   0.30196   0.70477  -0.6084840000
O          O       0.53898   0.44849   0.87192  -0.6087560000
O          O       0.62815   0.19804   0.96189  -0.6087170000
C          C       0.57531   0.18263   0.71752   0.6788140000
C          C       0.59151   0.43263   0.78255   0.6801730000
C          C       0.59135   0.31737   0.94915   0.6787810000
C          C       0.57516   0.06737   0.88412   0.6801270000
C          C       0.59393   0.13772   0.74499  -0.1654940000
C          C       0.57271   0.38787   0.75494  -0.1668710000
C          C       0.57273   0.36228   0.92167  -0.1654870000
C          C       0.59395   0.11213   0.91173  -0.1668820000
C          C       0.57413   0.11436   0.75722  -0.1779550000
C          C       0.59252   0.36426   0.74280  -0.1769840000
C          C       0.59253   0.38564   0.90944  -0.1779670000
C          C       0.57415   0.13575   0.92386  -0.1769060000
C          C       0.59257   0.06932   0.78438   0.6884870000
C          C       0.57388   0.31938   0.71549   0.6877950000
C          C       0.57409   0.43067   0.88229   0.6886230000
C          C       0.59279   0.18062   0.95117   0.6878370000
H          H       0.62477   0.12402   0.75457   0.1386340000
H          H       0.54171   0.37454   0.74515   0.1388950000
H          H       0.54189   0.37598   0.91209   0.1387330000
H          H       0.62496   0.12546   0.92151   0.1387030000
H          H       0.54339   0.12829   0.74774   0.1437300000
H          H       0.62347   0.37778   0.75255   0.1432450000
H          H       0.62328   0.37171   0.91893   0.1436210000
H          H       0.54320   0.12222   0.91412   0.1434090000
H          H       0.50582   0.23708   0.94576   0.4424580000
H          H       0.66097   0.48773   0.88773   0.4424510000
H          H       0.66084   0.26292   0.72090   0.4421920000
H          H       0.50570   0.01227   0.77893   0.4424700000
Al         Al      0.75000   0.25000   0.66667   1.6838930000
Al         Al      0.75000   0.00000   0.83333   1.6850460000
Al         Al      0.66667   0.25000   0.66667   1.6905180000
Al         Al      0.66667   0.00000   0.83333   1.6900610000
O          O       0.69158   0.24925   0.97464  -1.0107690000
O          O       0.80843  -0.00057   0.85870  -1.0108700000
O          O       0.80842   0.25074   0.69203  -1.0105550000
O          O       0.69157   0.00057   0.80797  -1.0108390000
O          O       0.70682   0.20023   0.70714  -0.6085690000
O          O       0.79358   0.44978   0.79327  -0.6080130000
O          O       0.79317   0.29978   0.95953  -0.6086790000
O          O       0.70642   0.05022   0.87339  -0.6078250000
O          O       0.76358   0.19951   0.70705  -0.6024800000
O          O       0.73642   0.44987   0.79273  -0.6038720000
O          O       0.73642   0.30049   0.95961  -0.6023300000
O          O       0.76358   0.05013   0.87394  -0.6039760000
O          O       0.73767   0.05209   0.79479  -0.6054170000
O          O       0.76227   0.30184   0.70534  -0.6048240000
O          O       0.76233   0.44791   0.87187  -0.6056050000
O          O       0.73773   0.19816   0.96132  -0.6047420000
O          O       0.79435   0.05150   0.79475  -0.6088260000
O          O       0.70519   0.30196   0.70477  -0.6084840000
O          O       0.70565   0.44849   0.87192  -0.6087560000
O          O       0.79481   0.19804   0.96189  -0.6087170000
C          C       0.74198   0.18263   0.71752   0.6788140000
C          C       0.75817   0.43263   0.78255   0.6801730000
C          C       0.75802   0.31737   0.94915   0.6787810000
C          C       0.74182   0.06737   0.88412   0.6801270000
C          C       0.76060   0.13772   0.74499  -0.1654940000
C          C       0.73938   0.38787   0.75494  -0.1668710000
C          C       0.73940   0.36228   0.92167  -0.1654870000
C          C       0.76062   0.11213   0.91173  -0.1668820000
C          C       0.74080   0.11436   0.75722  -0.1779550000
C          C       0.75918   0.36426   0.74280  -0.1769840000
C          C       0.75920   0.38564   0.90944  -0.1779670000
C          C       0.74082   0.13575   0.92386  -0.1769060000
C          C       0.75924   0.06932   0.78438   0.6884870000
C          C       0.74055   0.31938   0.71549   0.6877950000
C          C       0.74076   0.43067   0.88229   0.6886230000
C          C       0.75945   0.18062   0.95117   0.6878370000
H          H       0.79144   0.12402   0.75457   0.1386340000
H          H       0.70837   0.37454   0.74515   0.1388950000
H          H       0.70856   0.37598   0.91209   0.1387330000
H          H       0.79162   0.12546   0.92151   0.1387030000
H          H       0.71005   0.12829   0.74774   0.1437300000
H          H       0.79014   0.37778   0.75255   0.1432450000
H          H       0.78994   0.37171   0.91893   0.1436210000
H          H       0.70986   0.12222   0.91412   0.1434090000
H          H       0.67249   0.23708   0.94576   0.4424580000
H          H       0.82763   0.48773   0.88773   0.4424510000
H          H       0.82751   0.26292   0.72090   0.4421920000
H          H       0.67236   0.01227   0.77893   0.4424700000
Al         Al      0.91667   0.25000   0.66667   1.6838930000
Al         Al      0.91667   0.00000   0.83333   1.6850460000
Al         Al      0.83333   0.25000   0.66667   1.6905180000
Al         Al      0.83333   0.00000   0.83333   1.6900610000
O          O       0.85825   0.24925   0.97464  -1.0107690000
O          O       0.97509  -0.00057   0.85870  -1.0108700000
O          O       0.97508   0.25074   0.69203  -1.0105550000
O          O       0.85824   0.00057   0.80797  -1.0108390000
O          O       0.87349   0.20023   0.70714  -0.6085690000
O          O       0.96025   0.44978   0.79327  -0.6080130000
O          O       0.95984   0.29978   0.95953  -0.6086790000
O          O       0.87308   0.05022   0.87339  -0.6078250000
O          O       0.93024   0.19951   0.70705  -0.6024800000
O          O       0.90309   0.44987   0.79273  -0.6038720000
O          O       0.90309   0.30049   0.95961  -0.6023300000
O          O       0.93024   0.05013   0.87394  -0.6039760000
O          O       0.90434   0.05209   0.79479  -0.6054170000
O          O       0.92894   0.30184   0.70534  -0.6048240000
O          O       0.92899   0.44791   0.87187  -0.6056050000
O          O       0.90439   0.19816   0.96132  -0.6047420000
O          O       0.96102   0.05150   0.79475  -0.6088260000
O          O       0.87185   0.30196   0.70477  -0.6084840000
O          O       0.87231   0.44849   0.87192  -0.6087560000
O          O       0.96148   0.19804   0.96189  -0.6087170000
C          C       0.90864   0.18263   0.71752   0.6788140000
C          C       0.92484   0.43263   0.78255   0.6801730000
C          C       0.92469   0.31737   0.94915   0.6787810000
C          C       0.90849   0.06737   0.88412   0.6801270000
C          C       0.92727   0.13772   0.74499  -0.1654940000
C          C       0.90604   0.38787   0.75494  -0.1668710000
C          C       0.90606   0.36228   0.92167  -0.1654870000
C          C       0.92729   0.11213   0.91173  -0.1668820000
C          C       0.90746   0.11436   0.75722  -0.1779550000
C          C       0.92585   0.36426   0.74280  -0.1769840000
C          C       0.92587   0.38564   0.90944  -0.1779670000
C          C       0.90748   0.13575   0.92386  -0.1769060000
C          C       0.92591   0.06932   0.78438   0.6884870000
C          C       0.90721   0.31938   0.71549   0.6877950000
C          C       0.90742   0.43067   0.88229   0.6886230000
C          C       0.92612   0.18062   0.95117   0.6878370000
H          H       0.95810   0.12402   0.75457   0.1386340000
H          H       0.87504   0.37454   0.74515   0.1388950000
H          H       0.87523   0.37598   0.91209   0.1387330000
H          H       0.95829   0.12546   0.92151   0.1387030000
H          H       0.87672   0.12829   0.74774   0.1437300000
H          H       0.95680   0.37778   0.75255   0.1432450000
H          H       0.95661   0.37171   0.91893   0.1436210000
H          H       0.87653   0.12222   0.91412   0.1434090000
H          H       0.83916   0.23708   0.94576   0.4424580000
H          H       0.99430   0.48773   0.88773   0.4424510000
H          H       0.99417   0.26292   0.72090   0.4421920000
H          H       0.83903   0.01227   0.77893   0.4424700000
Al         Al      0.08333   0.75000   0.66667   1.6838930000
Al         Al      0.08333   0.50000   0.83333   1.6850460000
Al         Al      0.00000   0.75000   0.66667   1.6905180000
Al         Al      0.00000   0.50000   0.83333   1.6900610000
O          O       0.02492   0.74925   0.97464  -1.0107690000
O          O       0.14176   0.49943   0.85870  -1.0108700000
O          O       0.14175   0.75075   0.69203  -1.0105550000
O          O       0.02490   0.50057   0.80797  -1.0108390000
O          O       0.04016   0.70023   0.70714  -0.6085690000
O          O       0.12691   0.94978   0.79327  -0.6080130000
O          O       0.12651   0.79978   0.95953  -0.6086790000
O          O       0.03975   0.55022   0.87339  -0.6078250000
O          O       0.09691   0.69951   0.70705  -0.6024800000
O          O       0.06976   0.94987   0.79273  -0.6038720000
O          O       0.06975   0.80049   0.95961  -0.6023300000
O          O       0.09691   0.55013   0.87394  -0.6039760000
O          O       0.07100   0.55209   0.79479  -0.6054170000
O          O       0.09560   0.80184   0.70534  -0.6048240000
O          O       0.09566   0.94791   0.87187  -0.6056050000
O          O       0.07106   0.69816   0.96132  -0.6047420000
O          O       0.12768   0.55151   0.79475  -0.6088260000
O          O       0.03852   0.80196   0.70477  -0.6084840000
O          O       0.03898   0.94850   0.87192  -0.6087560000
O          O       0.12815   0.69804   0.96189  -0.6087170000
C          C       0.07531   0.68263   0.71752   0.6788140000
C          C       0.09151   0.93263   0.78255   0.6801730000
C          C       0.09135   0.81737   0.94915   0.6787810000
C          C       0.07516   0.56737   0.88412   0.6801270000
C          C       0.09393   0.63772   0.74499  -0.1654940000
C          C       0.07271   0.88787   0.75494  -0.1668710000
C          C       0.07273   0.86228   0.92167  -0.1654870000
C          C       0.09395   0.61213   0.91173  -0.1668820000
C          C       0.07413   0.61436   0.75722  -0.1779550000
C          C       0.09252   0.86426   0.74280  -0.1769840000
C          C       0.09253   0.88564   0.90944  -0.1779670000
C          C       0.07415   0.63575   0.92386  -0.1769060000
C          C       0.09257   0.56933   0.78438   0.6884870000
C          C       0.07388   0.81938   0.71549   0.6877950000
C          C       0.07409   0.93068   0.88229   0.6886230000
C          C       0.09279   0.68062   0.95117   0.6878370000
H          H       0.12477   0.62402   0.75457   0.1386340000
H          H       0.04171   0.87454   0.74515   0.1388950000
H          H       0.04189   0.87598   0.91209   0.1387330000
H          H       0.12496   0.62547   0.92151   0.1387030000
H          H       0.04339   0.62830   0.74774   0.1437300000
H          H       0.12347   0.87778   0.75255   0.1432450000
H          H       0.12327   0.87171   0.91893   0.1436210000
H          H       0.04320   0.62222   0.91412   0.1434090000
H          H       0.00582   0.73708   0.94576   0.4424580000
H          H       0.16097   0.98773   0.88773   0.4424510000
H          H       0.16084   0.76292   0.72090   0.4421920000
H          H       0.00570   0.51227   0.77893   0.4424700000
Al         Al      0.25000   0.75000   0.66667   1.6838930000
Al         Al      0.25000   0.50000   0.83333   1.6850460000
Al         Al      0.16667   0.75000   0.66667   1.6905180000
Al         Al      0.16667   0.50000   0.83333   1.6900610000
O          O       0.19158   0.74925   0.97464  -1.0107690000
O          O       0.30843   0.49943   0.85870  -1.0108700000
O          O       0.30842   0.75075   0.69203  -1.0105550000
O          O       0.19157   0.50057   0.80797  -1.0108390000
O          O       0.20682   0.70023   0.70714  -0.6085690000
O          O       0.29358   0.94978   0.79327  -0.6080130000
O          O       0.29317   0.79978   0.95953  -0.6086790000
O          O       0.20642   0.55022   0.87339  -0.6078250000
O          O       0.26358   0.69951   0.70705  -0.6024800000
O          O       0.23642   0.94987   0.79273  -0.6038720000
O          O       0.23642   0.80049   0.95961  -0.6023300000
O          O       0.26358   0.55013   0.87394  -0.6039760000
O          O       0.23767   0.55209   0.79479  -0.6054170000
O          O       0.26227   0.80184   0.70534  -0.6048240000
O          O       0.26233   0.94791   0.87187  -0.6056050000
O          O       0.23773   0.69816   0.96132  -0.6047420000
O          O       0.29435   0.55151   0.79475  -0.6088260000
O          O       0.20519   0.80196   0.70477  -0.6084840000
O          O       0.20565   0.94850   0.87192  -0.6087560000
O          O       0.29481   0.69804   0.96189  -0.6087170000
C          C       0.24198   0.68263   0.71752   0.6788140000
C          C       0.25817   0.93263   0.78255   0.6801730000
C          C       0.25802   0.81737   0.94915   0.6787810000
C          C       0.24182   0.56737   0.88412   0.6801270000
C          C       0.26060   0.63772   0.74499  -0.1654940000
C          C       0.23938   0.88787   0.75494  -0.1668710000
C          C       0.23940   0.86228   0.92167  -0.1654870000
C          C       0.26062   0.61213   0.91173  -0.1668820000
C          C       0.24080   0.61436   0.75722  -0.1779550000
C          C       0.25918   0.86426   0.74280  -0.1769840000
C          C       0.25920   0.88564   0.90944  -0.1779670000
C          C       0.24082   0.63575   0.92386  -0.1769060000
C          C       0.25924   0.56933   0.78438   0.6884870000
C          C       0.24054   0.81938   0.71549   0.6877950000
C          C       0.24076   0.93068   0.88229   0.6886230000
C          C       0.25945   0.68062   0.95117   0.6878370000
H          H       0.29144   0.62402   0.75457   0.1386340000
H          H       0.20838   0.87454   0.74515   0.1388950000
H          H       0.20856   0.87598   0.91209   0.1387330000
H          H       0.29162   0.62547   0.92151   0.1387030000
H          H       0.21006   0.62830   0.74774   0.1437300000
H          H       0.29014   0.87778   0.75255   0.1432450000
H          H       0.28994   0.87171   0.91893   0.1436210000
H          H       0.20986   0.62222   0.91412   0.1434090000
H          H       0.17249   0.73708   0.94576   0.4424580000
H          H       0.32763   0.98773   0.88773   0.4424510000
H          H       0.32751   0.76292   0.72090   0.4421920000
H          H       0.17237   0.51227   0.77893   0.4424700000
Al         Al      0.41667   0.75000   0.66667   1.6838930000
Al         Al      0.41667   0.50000   0.83333   1.6850460000
Al         Al      0.33333   0.75000   0.66667   1.6905180000
Al         Al      0.33333   0.50000   0.83333   1.6900610000
O          O       0.35825   0.74925   0.97464  -1.0107690000
O          O       0.47509   0.49943   0.85870  -1.0108700000
O          O       0.47508   0.75075   0.69203  -1.0105550000
O          O       0.35824   0.50057   0.80797  -1.0108390000
O          O       0.37349   0.70023   0.70714  -0.6085690000
O          O       0.46025   0.94978   0.79327  -0.6080130000
O          O       0.45984   0.79978   0.95953  -0.6086790000
O          O       0.37308   0.55022   0.87339  -0.6078250000
O          O       0.43024   0.69951   0.70705  -0.6024800000
O          O       0.40309   0.94987   0.79273  -0.6038720000
O          O       0.40309   0.80049   0.95961  -0.6023300000
O          O       0.43024   0.55013   0.87394  -0.6039760000
O          O       0.40434   0.55209   0.79479  -0.6054170000
O          O       0.42894   0.80184   0.70534  -0.6048240000
O          O       0.42899   0.94791   0.87187  -0.6056050000
O          O       0.40440   0.69816   0.96132  -0.6047420000
O          O       0.46102   0.55151   0.79475  -0.6088260000
O          O       0.37185   0.80196   0.70477  -0.6084840000
O          O       0.37231   0.94850   0.87192  -0.6087560000
O          O       0.46148   0.69804   0.96189  -0.6087170000
C          C       0.40865   0.68263   0.71752   0.6788140000
C          C       0.42484   0.93263   0.78255   0.6801730000
C          C       0.42469   0.81737   0.94915   0.6787810000
C          C       0.40849   0.56737   0.88412   0.6801270000
C          C       0.42727   0.63772   0.74499  -0.1654940000
C          C       0.40604   0.88787   0.75494  -0.1668710000
C          C       0.40606   0.86228   0.92167  -0.1654870000
C          C       0.42729   0.61213   0.91173  -0.1668820000
C          C       0.40746   0.61436   0.75722  -0.1779550000
C          C       0.42585   0.86426   0.74280  -0.1769840000
C          C       0.42587   0.88564   0.90944  -0.1779670000
C          C       0.40748   0.63575   0.92386  -0.1769060000
C          C       0.42591   0.56933   0.78438   0.6884870000
C          C       0.40721   0.81938   0.71549   0.6877950000
C          C       0.40742   0.93068   0.88229   0.6886230000
C          C       0.42612   0.68062   0.95117   0.6878370000
H          H       0.45810   0.62402   0.75457   0.1386340000
H          H       0.37504   0.87454   0.74515   0.1388950000
H          H       0.37523   0.87598   0.91209   0.1387330000
H          H       0.45829   0.62547   0.92151   0.1387030000
H          H       0.37672   0.62830   0.74774   0.1437300000
H          H       0.45680   0.87778   0.75255   0.1432450000
H          H       0.45661   0.87171   0.91893   0.1436210000
H          H       0.37653   0.62222   0.91412   0.1434090000
H          H       0.33916   0.73708   0.94576   0.4424580000
H          H       0.49430   0.98773   0.88773   0.4424510000
H          H       0.49417   0.76292   0.72090   0.4421920000
H          H       0.33903   0.51227   0.77893   0.4424700000
Al         Al      0.58333   0.75000   0.66667   1.6838930000
Al         Al      0.58333   0.50000   0.83333   1.6850460000
Al         Al      0.50000   0.75000   0.66667   1.6905180000
Al         Al      0.50000   0.50000   0.83333   1.6900610000
O          O       0.52492   0.74925   0.97464  -1.0107690000
O          O       0.64176   0.49943   0.85870  -1.0108700000
O          O       0.64175   0.75075   0.69203  -1.0105550000
O          O       0.52490   0.50057   0.80797  -1.0108390000
O          O       0.54016   0.70023   0.70714  -0.6085690000
O          O       0.62691   0.94978   0.79327  -0.6080130000
O          O       0.62651   0.79978   0.95953  -0.6086790000
O          O       0.53975   0.55022   0.87339  -0.6078250000
O          O       0.59691   0.69951   0.70705  -0.6024800000
O          O       0.56976   0.94987   0.79273  -0.6038720000
O          O       0.56975   0.80049   0.95961  -0.6023300000
O          O       0.59691   0.55013   0.87394  -0.6039760000
O          O       0.57100   0.55209   0.79479  -0.6054170000
O          O       0.59560   0.80184   0.70534  -0.6048240000
O          O       0.59566   0.94791   0.87187  -0.6056050000
O          O       0.57106   0.69816   0.96132  -0.6047420000
O          O       0.62768   0.55151   0.79475  -0.6088260000
O          O       0.53852   0.80196   0.70477  -0.6084840000
O          O       0.53898   0.94850   0.87192  -0.6087560000
O          O       0.62814   0.69804   0.96189  -0.6087170000
C          C       0.57531   0.68263   0.71752   0.6788140000
C          C       0.59150   0.93263   0.78255   0.6801730000
C          C       0.59135   0.81737   0.94915   0.6787810000
C          C       0.57516   0.56737   0.88412   0.6801270000
C          C       0.59393   0.63772   0.74499  -0.1654940000
C          C       0.57271   0.88787   0.75494  -0.1668710000
C          C       0.57273   0.86228   0.92167  -0.1654870000
C          C       0.59395   0.61213   0.91173  -0.1668820000
C          C       0.57413   0.61436   0.75722  -0.1779550000
C          C       0.59252   0.86426   0.74280  -0.1769840000
C          C       0.59253   0.88564   0.90944  -0.1779670000
C          C       0.57415   0.63575   0.92386  -0.1769060000
C          C       0.59257   0.56933   0.78438   0.6884870000
C          C       0.57388   0.81938   0.71549   0.6877950000
C          C       0.57409   0.93068   0.88229   0.6886230000
C          C       0.59278   0.68062   0.95117   0.6878370000
H          H       0.62477   0.62402   0.75457   0.1386340000
H          H       0.54171   0.87454   0.74515   0.1388950000
H          H       0.54189   0.87598   0.91209   0.1387330000
H          H       0.62496   0.62547   0.92151   0.1387030000
H          H       0.54339   0.62830   0.74774   0.1437300000
H          H       0.62347   0.87778   0.75255   0.1432450000
H          H       0.62327   0.87171   0.91893   0.1436210000
H          H       0.54320   0.62222   0.91412   0.1434090000
H          H       0.50582   0.73708   0.94576   0.4424580000
H          H       0.66097   0.98773   0.88773   0.4424510000
H          H       0.66084   0.76292   0.72090   0.4421920000
H          H       0.50570   0.51227   0.77893   0.4424700000
Al         Al      0.75000   0.75000   0.66667   1.6838930000
Al         Al      0.75000   0.50000   0.83333   1.6850460000
Al         Al      0.66667   0.75000   0.66667   1.6905180000
Al         Al      0.66667   0.50000   0.83333   1.6900610000
O          O       0.69158   0.74925   0.97464  -1.0107690000
O          O       0.80843   0.49943   0.85870  -1.0108700000
O          O       0.80842   0.75075   0.69203  -1.0105550000
O          O       0.69157   0.50057   0.80797  -1.0108390000
O          O       0.70682   0.70023   0.70714  -0.6085690000
O          O       0.79358   0.94978   0.79327  -0.6080130000
O          O       0.79317   0.79978   0.95953  -0.6086790000
O          O       0.70642   0.55022   0.87339  -0.6078250000
O          O       0.76358   0.69951   0.70705  -0.6024800000
O          O       0.73642   0.94987   0.79273  -0.6038720000
O          O       0.73642   0.80049   0.95961  -0.6023300000
O          O       0.76358   0.55013   0.87394  -0.6039760000
O          O       0.73767   0.55209   0.79479  -0.6054170000
O          O       0.76227   0.80184   0.70534  -0.6048240000
O          O       0.76233   0.94791   0.87187  -0.6056050000
O          O       0.73773   0.69816   0.96132  -0.6047420000
O          O       0.79435   0.55151   0.79475  -0.6088260000
O          O       0.70519   0.80196   0.70477  -0.6084840000
O          O       0.70565   0.94850   0.87192  -0.6087560000
O          O       0.79481   0.69804   0.96189  -0.6087170000
C          C       0.74198   0.68263   0.71752   0.6788140000
C          C       0.75817   0.93263   0.78255   0.6801730000
C          C       0.75802   0.81737   0.94915   0.6787810000
C          C       0.74182   0.56737   0.88412   0.6801270000
C          C       0.76060   0.63772   0.74499  -0.1654940000
C          C       0.73938   0.88787   0.75494  -0.1668710000
C          C       0.73940   0.86228   0.92167  -0.1654870000
C          C       0.76062   0.61213   0.91173  -0.1668820000
C          C       0.74080   0.61436   0.75722  -0.1779550000
C          C       0.75918   0.86426   0.74280  -0.1769840000
C          C       0.75920   0.88564   0.90944  -0.1779670000
C          C       0.74082   0.63575   0.92386  -0.1769060000
C          C       0.75924   0.56933   0.78438   0.6884870000
C          C       0.74054   0.81938   0.71549   0.6877950000
C          C       0.74076   0.93068   0.88229   0.6886230000
C          C       0.75945   0.68062   0.95117   0.6878370000
H          H       0.79144   0.62402   0.75457   0.1386340000
H          H       0.70837   0.87454   0.74515   0.1388950000
H          H       0.70856   0.87598   0.91209   0.1387330000
H          H       0.79162   0.62547   0.92151   0.1387030000
H          H       0.71005   0.62830   0.74774   0.1437300000
H          H       0.79013   0.87778   0.75255   0.1432450000
H          H       0.78994   0.87171   0.91893   0.1436210000
H          H       0.70986   0.62222   0.91412   0.1434090000
H          H       0.67249   0.73708   0.94576   0.4424580000
H          H       0.82763   0.98773   0.88773   0.4424510000
H          H       0.82751   0.76292   0.72090   0.4421920000
H          H       0.67236   0.51227   0.77893   0.4424700000
Al         Al      0.91667   0.75000   0.66667   1.6838930000
Al         Al      0.91667   0.50000   0.83333   1.6850460000
Al         Al      0.83333   0.75000   0.66667   1.6905180000
Al         Al      0.83333   0.50000   0.83333   1.6900610000
O          O       0.85825   0.74925   0.97464  -1.0107690000
O          O       0.97509   0.49943   0.85870  -1.0108700000
O          O       0.97508   0.75075   0.69203  -1.0105550000
O          O       0.85824   0.50057   0.80797  -1.0108390000
O          O       0.87349   0.70023   0.70714  -0.6085690000
O          O       0.96025   0.94978   0.79327  -0.6080130000
O          O       0.95984   0.79978   0.95953  -0.6086790000
O          O       0.87308   0.55022   0.87339  -0.6078250000
O          O       0.93024   0.69951   0.70705  -0.6024800000
O          O       0.90309   0.94987   0.79273  -0.6038720000
O          O       0.90309   0.80049   0.95961  -0.6023300000
O          O       0.93024   0.55013   0.87394  -0.6039760000
O          O       0.90434   0.55209   0.79479  -0.6054170000
O          O       0.92894   0.80184   0.70534  -0.6048240000
O          O       0.92899   0.94791   0.87187  -0.6056050000
O          O       0.90439   0.69816   0.96132  -0.6047420000
O          O       0.96102   0.55151   0.79475  -0.6088260000
O          O       0.87185   0.80196   0.70477  -0.6084840000
O          O       0.87231   0.94850   0.87192  -0.6087560000
O          O       0.96148   0.69804   0.96189  -0.6087170000
C          C       0.90864   0.68263   0.71752   0.6788140000
C          C       0.92484   0.93263   0.78255   0.6801730000
C          C       0.92469   0.81737   0.94915   0.6787810000
C          C       0.90849   0.56737   0.88412   0.6801270000
C          C       0.92727   0.63772   0.74499  -0.1654940000
C          C       0.90604   0.88787   0.75494  -0.1668710000
C          C       0.90606   0.86228   0.92167  -0.1654870000
C          C       0.92729   0.61213   0.91173  -0.1668820000
C          C       0.90746   0.61436   0.75722  -0.1779550000
C          C       0.92585   0.86426   0.74280  -0.1769840000
C          C       0.92587   0.88564   0.90944  -0.1779670000
C          C       0.90748   0.63575   0.92386  -0.1769060000
C          C       0.92591   0.56933   0.78438   0.6884870000
C          C       0.90721   0.81938   0.71549   0.6877950000
C          C       0.90742   0.93068   0.88229   0.6886230000
C          C       0.92612   0.68062   0.95117   0.6878370000
H          H       0.95810   0.62402   0.75457   0.1386340000
H          H       0.87504   0.87454   0.74515   0.1388950000
H          H       0.87523   0.87598   0.91209   0.1387330000
H          H       0.95829   0.62547   0.92151   0.1387030000
H          H       0.87672   0.62830   0.74774   0.1437300000
H          H       0.95680   0.87778   0.75255   0.1432450000
H          H       0.95661   0.87171   0.91893   0.1436210000
H          H       0.87653   0.62222   0.91412   0.1434090000
H          H       0.83916   0.73708   0.94576   0.4424580000
H          H       0.99430   0.98773   0.88773   0.4424510000
H          H       0.99417   0.76292   0.72090   0.4421920000
H          H       0.83903   0.51227   0.77893   0.4424700000
