data_crystal

_cell_length_a    26.74800
_cell_length_b    33.29100
_cell_length_c    26.43000
_cell_angle_alpha 90.08100
_cell_angle_beta  90.08700
_cell_angle_gamma 101.15500

_symmetry_space_group_name_Hall 'P 1'
_symmetry_space_group_name_H-M  'P 1'

loop_
_symmetry_equiv_pos_as_xyz
 'x,y,z'

loop_
_atom_site_label
_atom_site_type_symbol
_atom_site_fract_x
_atom_site_fract_y
_atom_site_fract_z
_atom_site_charge
Al         Al      0.12634   0.00029   0.25126   1.6812430000
Al         Al      0.00121  -0.00028   0.25127   1.6843320000
O          O       0.03042   0.03852   0.19934  -0.6124010000
O          O       0.11587   0.03879   0.19914  -0.6093430000
O          O       0.01252   0.12726   0.05071  -0.5922750000
O          O       0.09831   0.13140   0.05531  -0.5926030000
C          C       0.07556   0.04956   0.18210   0.6732900000
C          C       0.08335   0.07785   0.13818  -0.1744340000
C          C       0.04467   0.09025   0.11421  -0.1720570000
C          C       0.05277   0.11849   0.07022   0.6713660000
H          H       0.12244   0.08813   0.12553   0.1501860000
H          H       0.00542   0.07989   0.12627   0.1459920000
O          O       0.19477   0.02469   0.24999  -1.0042410000
H          H       0.20122   0.05059   0.23211   0.4348450000
O          O       0.22198   0.29534   0.30283  -0.5927220000
O          O       0.13709   0.29649   0.30343  -0.5909280000
O          O       0.23977   0.20610   0.44989  -0.6087500000
O          O       0.15394   0.20401   0.44714  -0.6139640000
C          C       0.17693   0.28510   0.32022   0.6686330000
C          C       0.16889   0.25688   0.36411  -0.1682540000
C          C       0.20756   0.24400   0.38740  -0.1774880000
C          C       0.19950   0.21590   0.43139   0.6746340000
H          H       0.12980   0.24713   0.37693   0.1446690000
H          H       0.24659   0.25389   0.37438   0.1508060000
O          O       0.05799   0.30863   0.24997  -1.0041140000
H          H       0.05209   0.28271   0.23204   0.4351880000
Al         Al      0.00048   0.16629   0.00101   1.6783220000
Al         Al      0.12567   0.16699   0.00097   1.6816750000
O          O       0.11587   0.03829   0.30308  -0.5892690000
O          O       0.13664   0.29463   0.19911  -0.6088480000
O          O       0.03036   0.03661   0.30332  -0.5960730000
O          O       0.22204   0.29475   0.19922  -0.6145040000
O          O       0.15627   0.20603   0.05059  -0.5959040000
O          O       0.24004   0.20203   0.05547  -0.5888210000
C          C       0.20047   0.21475   0.07043   0.6711710000
C          C       0.20786   0.24255   0.11493  -0.1685880000
C          C       0.16921   0.25625   0.13719  -0.1766370000
C          C       0.17683   0.28398   0.18179   0.6742590000
H          H       0.24663   0.25128   0.12920   0.1445990000
H          H       0.13046   0.24738   0.12283   0.1509870000
O          O       0.06881   0.19168  -0.00009  -1.0025010000
H          H       0.07454   0.21715   0.48109   0.4344360000
O          O       0.09549   0.12731   0.45007  -0.6140200000
O          O       0.01051   0.12903   0.44690  -0.6086170000
C          C       0.05072   0.11736   0.43130   0.6742670000
C          C       0.04356   0.08931   0.38706  -0.1756280000
C          C       0.08260   0.07634   0.36462  -0.1699730000
C          C       0.07540   0.04825   0.32043   0.6705200000
H          H       0.00482   0.07970   0.37295   0.1509970000
H          H       0.12147   0.08604   0.37826   0.1443920000
O          O       0.18191   0.14156  -0.00009  -1.0021740000
H          H       0.17546   0.11610   0.48100   0.4344580000
Al         Al      0.37634   0.00029   0.25127   1.6807690000
Al         Al      0.25121  -0.00029   0.25126   1.6843980000
O          O       0.28042   0.03852   0.19934  -0.6123120000
O          O       0.36588   0.03879   0.19913  -0.6095660000
O          O       0.26251   0.12727   0.05071  -0.5917890000
O          O       0.34831   0.13139   0.05531  -0.5930300000
C          C       0.32556   0.04956   0.18210   0.6734260000
C          C       0.33334   0.07784   0.13817  -0.1744030000
C          C       0.29467   0.09025   0.11422  -0.1720680000
C          C       0.30277   0.11849   0.07022   0.6713660000
H          H       0.37244   0.08812   0.12551   0.1500740000
H          H       0.25542   0.07990   0.12629   0.1460240000
O          O       0.44477   0.02471   0.24999  -1.0035410000
H          H       0.45119   0.05049   0.23184   0.4343730000
O          O       0.47198   0.29534   0.30283  -0.5927020000
O          O       0.38708   0.29650   0.30344  -0.5907200000
O          O       0.48976   0.20609   0.44989  -0.6085080000
O          O       0.40393   0.20400   0.44714  -0.6139420000
C          C       0.42692   0.28509   0.32022   0.6686050000
C          C       0.41887   0.25686   0.36408  -0.1686310000
C          C       0.45755   0.24395   0.38736  -0.1767790000
C          C       0.44950   0.21587   0.43137   0.6745820000
H          H       0.37979   0.24713   0.37694   0.1448440000
H          H       0.49657   0.25381   0.37430   0.1503210000
O          O       0.30799   0.30863   0.24996  -1.0036500000
H          H       0.30211   0.28271   0.23202   0.4349190000
Al         Al      0.25048   0.16630   0.00102   1.6777550000
Al         Al      0.37567   0.16699   0.00097   1.6821610000
O          O       0.36586   0.03829   0.30308  -0.5890900000
O          O       0.38664   0.29462   0.19912  -0.6090980000
O          O       0.28036   0.03661   0.30332  -0.5963920000
O          O       0.47204   0.29475   0.19922  -0.6147280000
O          O       0.40627   0.20603   0.05059  -0.5961180000
O          O       0.49005   0.20203   0.05546  -0.5889310000
C          C       0.45047   0.21474   0.07043   0.6712420000
C          C       0.45786   0.24254   0.11495  -0.1687060000
C          C       0.41922   0.25621   0.13723  -0.1764890000
C          C       0.42684   0.28396   0.18181   0.6746570000
H          H       0.49665   0.25128   0.12918   0.1446550000
H          H       0.38047   0.24732   0.12288   0.1507770000
O          O       0.31880   0.19168  -0.00009  -1.0024930000
H          H       0.32454   0.21715   0.48111   0.4344360000
O          O       0.34547   0.12730   0.45009  -0.6140160000
O          O       0.26049   0.12903   0.44690  -0.6089390000
C          C       0.30071   0.11735   0.43130   0.6744900000
C          C       0.29355   0.08929   0.38709  -0.1754820000
C          C       0.33260   0.07634   0.36462  -0.1702780000
C          C       0.32540   0.04825   0.32043   0.6707970000
H          H       0.25481   0.07965   0.37300   0.1510280000
H          H       0.37147   0.08606   0.37823   0.1445610000
O          O       0.43191   0.14158  -0.00007  -1.0027990000
H          H       0.42539   0.11585   0.48157   0.4348040000
Al         Al      0.62634   0.00029   0.25126   1.6812430000
Al         Al      0.50121  -0.00028   0.25127   1.6843320000
O          O       0.53042   0.03852   0.19934  -0.6124010000
O          O       0.61587   0.03879   0.19914  -0.6093430000
O          O       0.51252   0.12726   0.05071  -0.5922750000
O          O       0.59831   0.13140   0.05531  -0.5926030000
C          C       0.57556   0.04956   0.18210   0.6732900000
C          C       0.58335   0.07785   0.13818  -0.1744340000
C          C       0.54468   0.09025   0.11421  -0.1720570000
C          C       0.55278   0.11849   0.07022   0.6713660000
H          H       0.62244   0.08813   0.12553   0.1501860000
H          H       0.50542   0.07989   0.12627   0.1459920000
O          O       0.69477   0.02469   0.24999  -1.0042410000
H          H       0.70122   0.05059   0.23211   0.4348450000
O          O       0.72198   0.29534   0.30283  -0.5927220000
O          O       0.63710   0.29649   0.30343  -0.5909280000
O          O       0.73977   0.20610   0.44989  -0.6087500000
O          O       0.65394   0.20401   0.44714  -0.6139640000
C          C       0.67694   0.28510   0.32022   0.6686330000
C          C       0.66889   0.25688   0.36411  -0.1682540000
C          C       0.70756   0.24400   0.38740  -0.1774880000
C          C       0.69950   0.21590   0.43139   0.6746340000
H          H       0.62980   0.24713   0.37693   0.1446690000
H          H       0.74659   0.25389   0.37438   0.1508060000
O          O       0.55800   0.30863   0.24997  -1.0041140000
H          H       0.55209   0.28271   0.23204   0.4351880000
Al         Al      0.50048   0.16629   0.00101   1.6783220000
Al         Al      0.62567   0.16699   0.00097   1.6816750000
O          O       0.61587   0.03829   0.30308  -0.5892690000
O          O       0.63664   0.29463   0.19911  -0.6088480000
O          O       0.53036   0.03661   0.30332  -0.5960730000
O          O       0.72204   0.29475   0.19922  -0.6145040000
O          O       0.65627   0.20603   0.05059  -0.5959040000
O          O       0.74004   0.20203   0.05547  -0.5888210000
C          C       0.70047   0.21475   0.07043   0.6711710000
C          C       0.70786   0.24255   0.11493  -0.1685880000
C          C       0.66921   0.25625   0.13719  -0.1766370000
C          C       0.67683   0.28398   0.18179   0.6742590000
H          H       0.74663   0.25128   0.12920   0.1445990000
H          H       0.63046   0.24738   0.12283   0.1509870000
O          O       0.56881   0.19168  -0.00009  -1.0025010000
H          H       0.57453   0.21715   0.48109   0.4344360000
O          O       0.59549   0.12731   0.45007  -0.6140200000
O          O       0.51051   0.12903   0.44690  -0.6086170000
C          C       0.55072   0.11736   0.43130   0.6742670000
C          C       0.54356   0.08931   0.38706  -0.1756280000
C          C       0.58260   0.07634   0.36462  -0.1699730000
C          C       0.57540   0.04825   0.32043   0.6705200000
H          H       0.50482   0.07970   0.37295   0.1509970000
H          H       0.62146   0.08604   0.37826   0.1443920000
O          O       0.68192   0.14156  -0.00009  -1.0021740000
H          H       0.67546   0.11610   0.48100   0.4344580000
Al         Al      0.87634   0.00029   0.25127   1.6807690000
Al         Al      0.75121  -0.00029   0.25126   1.6843980000
O          O       0.78042   0.03852   0.19934  -0.6123120000
O          O       0.86587   0.03879   0.19913  -0.6095660000
O          O       0.76251   0.12727   0.05071  -0.5917890000
O          O       0.84831   0.13139   0.05531  -0.5930300000
C          C       0.82556   0.04956   0.18210   0.6734260000
C          C       0.83334   0.07784   0.13817  -0.1744030000
C          C       0.79467   0.09025   0.11422  -0.1720680000
C          C       0.80277   0.11849   0.07022   0.6713660000
H          H       0.87244   0.08812   0.12551   0.1500740000
H          H       0.75542   0.07990   0.12629   0.1460240000
O          O       0.94477   0.02471   0.24999  -1.0035410000
H          H       0.95119   0.05049   0.23184   0.4343730000
O          O       0.97198   0.29534   0.30283  -0.5927020000
O          O       0.88709   0.29650   0.30344  -0.5907200000
O          O       0.98976   0.20609   0.44989  -0.6085080000
O          O       0.90394   0.20400   0.44714  -0.6139420000
C          C       0.92692   0.28509   0.32022   0.6686050000
C          C       0.91887   0.25686   0.36408  -0.1686310000
C          C       0.95755   0.24395   0.38736  -0.1767790000
C          C       0.94950   0.21587   0.43137   0.6745820000
H          H       0.87979   0.24713   0.37694   0.1448440000
H          H       0.99657   0.25381   0.37430   0.1503210000
O          O       0.80799   0.30863   0.24996  -1.0036500000
H          H       0.80210   0.28271   0.23202   0.4349190000
Al         Al      0.75048   0.16630   0.00102   1.6777550000
Al         Al      0.87566   0.16699   0.00097   1.6821610000
O          O       0.86586   0.03829   0.30308  -0.5890900000
O          O       0.88664   0.29462   0.19912  -0.6090980000
O          O       0.78036   0.03661   0.30332  -0.5963920000
O          O       0.97204   0.29475   0.19922  -0.6147280000
O          O       0.90628   0.20603   0.05059  -0.5961180000
O          O       0.99004   0.20203   0.05546  -0.5889310000
C          C       0.95047   0.21474   0.07043   0.6712420000
C          C       0.95787   0.24254   0.11495  -0.1687060000
C          C       0.91922   0.25621   0.13723  -0.1764890000
C          C       0.92684   0.28396   0.18181   0.6746570000
H          H       0.99665   0.25128   0.12918   0.1446550000
H          H       0.88047   0.24732   0.12288   0.1507770000
O          O       0.81880   0.19168  -0.00009  -1.0024930000
H          H       0.82454   0.21715   0.48111   0.4344360000
O          O       0.84547   0.12730   0.45009  -0.6140160000
O          O       0.76049   0.12903   0.44690  -0.6089390000
C          C       0.80071   0.11735   0.43130   0.6744900000
C          C       0.79355   0.08929   0.38709  -0.1754820000
C          C       0.83260   0.07634   0.36462  -0.1702780000
C          C       0.82539   0.04825   0.32043   0.6707970000
H          H       0.75481   0.07965   0.37300   0.1510280000
H          H       0.87147   0.08606   0.37823   0.1445610000
O          O       0.93191   0.14158  -0.00007  -1.0027990000
H          H       0.92539   0.11585   0.48157   0.4348040000
Al         Al      0.12634   0.33363   0.25126   1.6812430000
Al         Al      0.00121   0.33305   0.25127   1.6843320000
O          O       0.03042   0.37185   0.19934  -0.6124010000
O          O       0.11587   0.37213   0.19914  -0.6093430000
O          O       0.01251   0.46059   0.05071  -0.5922750000
O          O       0.09831   0.46473   0.05531  -0.5926030000
C          C       0.07556   0.38290   0.18210   0.6732900000
C          C       0.08335   0.41118   0.13818  -0.1744340000
C          C       0.04467   0.42358   0.11421  -0.1720570000
C          C       0.05277   0.45182   0.07022   0.6713660000
H          H       0.12244   0.42147   0.12553   0.1501860000
H          H       0.00542   0.41322   0.12627   0.1459920000
O          O       0.19477   0.35803   0.24999  -1.0042410000
H          H       0.20122   0.38392   0.23211   0.4348450000
O          O       0.22198   0.62868   0.30283  -0.5927220000
O          O       0.13709   0.62983   0.30343  -0.5909280000
O          O       0.23977   0.53943   0.44989  -0.6087500000
O          O       0.15394   0.53734   0.44714  -0.6139640000
C          C       0.17693   0.61843   0.32022   0.6686330000
C          C       0.16889   0.59022   0.36411  -0.1682540000
C          C       0.20756   0.57734   0.38740  -0.1774880000
C          C       0.19950   0.54923   0.43139   0.6746340000
H          H       0.12980   0.58046   0.37693   0.1446690000
H          H       0.24659   0.58723   0.37438   0.1508060000
O          O       0.05800   0.64197   0.24997  -1.0041140000
H          H       0.05209   0.61604   0.23204   0.4351880000
Al         Al      0.00048   0.49963   0.00101   1.6783220000
Al         Al      0.12567   0.50032   0.00097   1.6816750000
O          O       0.11587   0.37163   0.30308  -0.5892690000
O          O       0.13664   0.62796   0.19911  -0.6088480000
O          O       0.03036   0.36994   0.30332  -0.5960730000
O          O       0.22204   0.62809   0.19922  -0.6145040000
O          O       0.15627   0.53936   0.05059  -0.5959040000
O          O       0.24004   0.53536   0.05547  -0.5888210000
C          C       0.20047   0.54808   0.07043   0.6711710000
C          C       0.20786   0.57589   0.11493  -0.1685880000
C          C       0.16921   0.58958   0.13719  -0.1766370000
C          C       0.17684   0.61731   0.18179   0.6742590000
H          H       0.24663   0.58461   0.12920   0.1445990000
H          H       0.13046   0.58071   0.12283   0.1509870000
O          O       0.06880   0.52501  -0.00009  -1.0025010000
H          H       0.07453   0.55048   0.48109   0.4344360000
O          O       0.09548   0.46064   0.45007  -0.6140200000
O          O       0.01051   0.46236   0.44690  -0.6086170000
C          C       0.05072   0.45069   0.43130   0.6742670000
C          C       0.04356   0.42265   0.38706  -0.1756280000
C          C       0.08260   0.40967   0.36462  -0.1699730000
C          C       0.07540   0.38158   0.32043   0.6705200000
H          H       0.00482   0.41304   0.37295   0.1509970000
H          H       0.12147   0.41937   0.37826   0.1443920000
O          O       0.18192   0.47489  -0.00009  -1.0021740000
H          H       0.17546   0.44943   0.48100   0.4344580000
Al         Al      0.37634   0.33363   0.25127   1.6807690000
Al         Al      0.25121   0.33304   0.25126   1.6843980000
O          O       0.28042   0.37185   0.19934  -0.6123120000
O          O       0.36588   0.37212   0.19913  -0.6095660000
O          O       0.26251   0.46060   0.05071  -0.5917890000
O          O       0.34831   0.46473   0.05531  -0.5930300000
C          C       0.32556   0.38289   0.18210   0.6734260000
C          C       0.33334   0.41118   0.13817  -0.1744030000
C          C       0.29467   0.42359   0.11422  -0.1720680000
C          C       0.30277   0.45182   0.07022   0.6713660000
H          H       0.37244   0.42145   0.12551   0.1500740000
H          H       0.25542   0.41324   0.12629   0.1460240000
O          O       0.44477   0.35804   0.24999  -1.0035410000
H          H       0.45119   0.38382   0.23184   0.4343730000
O          O       0.47198   0.62868   0.30283  -0.5927020000
O          O       0.38708   0.62983   0.30344  -0.5907200000
O          O       0.48976   0.53942   0.44989  -0.6085080000
O          O       0.40393   0.53733   0.44714  -0.6139420000
C          C       0.42692   0.61842   0.32022   0.6686050000
C          C       0.41887   0.59019   0.36408  -0.1686310000
C          C       0.45755   0.57728   0.38736  -0.1767790000
C          C       0.44950   0.54920   0.43137   0.6745820000
H          H       0.37979   0.58046   0.37694   0.1448440000
H          H       0.49657   0.58714   0.37430   0.1503210000
O          O       0.30799   0.64196   0.24996  -1.0036500000
H          H       0.30211   0.61604   0.23202   0.4349190000
Al         Al      0.25048   0.49963   0.00102   1.6777550000
Al         Al      0.37567   0.50032   0.00097   1.6821610000
O          O       0.36586   0.37163   0.30308  -0.5890900000
O          O       0.38664   0.62795   0.19912  -0.6090980000
O          O       0.28036   0.36994   0.30332  -0.5963920000
O          O       0.47205   0.62809   0.19922  -0.6147280000
O          O       0.40627   0.53936   0.05059  -0.5961180000
O          O       0.49005   0.53537   0.05546  -0.5889310000
C          C       0.45047   0.54807   0.07043   0.6712420000
C          C       0.45786   0.57587   0.11495  -0.1687060000
C          C       0.41922   0.58954   0.13723  -0.1764890000
C          C       0.42684   0.61729   0.18181   0.6746570000
H          H       0.49665   0.58461   0.12918   0.1446550000
H          H       0.38046   0.58065   0.12288   0.1507770000
O          O       0.31880   0.52501  -0.00009  -1.0024930000
H          H       0.32454   0.55049   0.48111   0.4344360000
O          O       0.34547   0.46064   0.45009  -0.6140160000
O          O       0.26049   0.46237   0.44690  -0.6089390000
C          C       0.30071   0.45068   0.43130   0.6744900000
C          C       0.29355   0.42262   0.38709  -0.1754820000
C          C       0.33260   0.40968   0.36462  -0.1702780000
C          C       0.32540   0.38158   0.32043   0.6707970000
H          H       0.25481   0.41299   0.37300   0.1510280000
H          H       0.37147   0.41940   0.37823   0.1445610000
O          O       0.43191   0.47491  -0.00007  -1.0027990000
H          H       0.42538   0.44919   0.48157   0.4348040000
Al         Al      0.62634   0.33363   0.25126   1.6812430000
Al         Al      0.50121   0.33305   0.25127   1.6843320000
O          O       0.53042   0.37185   0.19934  -0.6124010000
O          O       0.61587   0.37213   0.19914  -0.6093430000
O          O       0.51251   0.46059   0.05071  -0.5922750000
O          O       0.59831   0.46473   0.05531  -0.5926030000
C          C       0.57556   0.38290   0.18210   0.6732900000
C          C       0.58335   0.41118   0.13818  -0.1744340000
C          C       0.54467   0.42358   0.11421  -0.1720570000
C          C       0.55278   0.45182   0.07022   0.6713660000
H          H       0.62244   0.42147   0.12553   0.1501860000
H          H       0.50542   0.41322   0.12627   0.1459920000
O          O       0.69477   0.35803   0.24999  -1.0042410000
H          H       0.70122   0.38392   0.23211   0.4348450000
O          O       0.72198   0.62868   0.30283  -0.5927220000
O          O       0.63710   0.62983   0.30343  -0.5909280000
O          O       0.73978   0.53943   0.44989  -0.6087500000
O          O       0.65394   0.53734   0.44714  -0.6139640000
C          C       0.67694   0.61843   0.32022   0.6686330000
C          C       0.66889   0.59022   0.36411  -0.1682540000
C          C       0.70756   0.57734   0.38740  -0.1774880000
C          C       0.69951   0.54923   0.43139   0.6746340000
H          H       0.62980   0.58046   0.37693   0.1446690000
H          H       0.74659   0.58723   0.37438   0.1508060000
O          O       0.55800   0.64197   0.24997  -1.0041140000
H          H       0.55209   0.61604   0.23204   0.4351880000
Al         Al      0.50048   0.49963   0.00101   1.6783220000
Al         Al      0.62567   0.50032   0.00097   1.6816750000
O          O       0.61587   0.37163   0.30308  -0.5892690000
O          O       0.63664   0.62796   0.19911  -0.6088480000
O          O       0.53036   0.36994   0.30332  -0.5960730000
O          O       0.72204   0.62809   0.19922  -0.6145040000
O          O       0.65627   0.53936   0.05059  -0.5959040000
O          O       0.74004   0.53536   0.05547  -0.5888210000
C          C       0.70047   0.54808   0.07043   0.6711710000
C          C       0.70786   0.57589   0.11493  -0.1685880000
C          C       0.66921   0.58958   0.13719  -0.1766370000
C          C       0.67683   0.61731   0.18179   0.6742590000
H          H       0.74663   0.58461   0.12920   0.1445990000
H          H       0.63046   0.58071   0.12283   0.1509870000
O          O       0.56881   0.52501  -0.00009  -1.0025010000
H          H       0.57454   0.55048   0.48109   0.4344360000
O          O       0.59549   0.46064   0.45007  -0.6140200000
O          O       0.51051   0.46236   0.44690  -0.6086170000
C          C       0.55072   0.45069   0.43130   0.6742670000
C          C       0.54356   0.42265   0.38706  -0.1756280000
C          C       0.58260   0.40967   0.36462  -0.1699730000
C          C       0.57540   0.38158   0.32043   0.6705200000
H          H       0.50482   0.41304   0.37295   0.1509970000
H          H       0.62146   0.41937   0.37826   0.1443920000
O          O       0.68192   0.47489  -0.00009  -1.0021740000
H          H       0.67546   0.44943   0.48100   0.4344580000
Al         Al      0.87634   0.33363   0.25127   1.6807690000
Al         Al      0.75121   0.33304   0.25126   1.6843980000
O          O       0.78042   0.37185   0.19934  -0.6123120000
O          O       0.86587   0.37212   0.19913  -0.6095660000
O          O       0.76252   0.46060   0.05071  -0.5917890000
O          O       0.84831   0.46473   0.05531  -0.5930300000
C          C       0.82556   0.38289   0.18210   0.6734260000
C          C       0.83334   0.41118   0.13817  -0.1744030000
C          C       0.79467   0.42359   0.11422  -0.1720680000
C          C       0.80277   0.45182   0.07022   0.6713660000
H          H       0.87243   0.42145   0.12551   0.1500740000
H          H       0.75542   0.41324   0.12629   0.1460240000
O          O       0.94477   0.35804   0.24999  -1.0035410000
H          H       0.95119   0.38382   0.23184   0.4343730000
O          O       0.97198   0.62868   0.30283  -0.5927020000
O          O       0.88708   0.62983   0.30344  -0.5907200000
O          O       0.98977   0.53942   0.44989  -0.6085080000
O          O       0.90394   0.53733   0.44714  -0.6139420000
C          C       0.92692   0.61842   0.32022   0.6686050000
C          C       0.91887   0.59019   0.36408  -0.1686310000
C          C       0.95755   0.57728   0.38736  -0.1767790000
C          C       0.94950   0.54920   0.43137   0.6745820000
H          H       0.87979   0.58046   0.37694   0.1448440000
H          H       0.99657   0.58714   0.37430   0.1503210000
O          O       0.80799   0.64196   0.24996  -1.0036500000
H          H       0.80210   0.61604   0.23202   0.4349190000
Al         Al      0.75048   0.49963   0.00102   1.6777550000
Al         Al      0.87567   0.50032   0.00097   1.6821610000
O          O       0.86586   0.37163   0.30308  -0.5890900000
O          O       0.88664   0.62795   0.19912  -0.6090980000
O          O       0.78036   0.36994   0.30332  -0.5963920000
O          O       0.97205   0.62809   0.19922  -0.6147280000
O          O       0.90628   0.53936   0.05059  -0.5961180000
O          O       0.99005   0.53537   0.05546  -0.5889310000
C          C       0.95047   0.54807   0.07043   0.6712420000
C          C       0.95787   0.57587   0.11495  -0.1687060000
C          C       0.91922   0.58954   0.13723  -0.1764890000
C          C       0.92684   0.61729   0.18181   0.6746570000
H          H       0.99664   0.58461   0.12918   0.1446550000
H          H       0.88047   0.58065   0.12288   0.1507770000
O          O       0.81880   0.52501  -0.00009  -1.0024930000
H          H       0.82454   0.55049   0.48111   0.4344360000
O          O       0.84547   0.46064   0.45009  -0.6140160000
O          O       0.76049   0.46237   0.44690  -0.6089390000
C          C       0.80071   0.45068   0.43130   0.6744900000
C          C       0.79355   0.42262   0.38709  -0.1754820000
C          C       0.83260   0.40968   0.36462  -0.1702780000
C          C       0.82539   0.38158   0.32043   0.6707970000
H          H       0.75481   0.41299   0.37300   0.1510280000
H          H       0.87147   0.41940   0.37823   0.1445610000
O          O       0.93191   0.47491  -0.00007  -1.0027990000
H          H       0.92539   0.44919   0.48157   0.4348040000
Al         Al      0.12634   0.66696   0.25126   1.6812430000
Al         Al      0.00122   0.66638   0.25127   1.6843320000
O          O       0.03042   0.70519   0.19934  -0.6124010000
O          O       0.11587   0.70546   0.19914  -0.6093430000
O          O       0.01251   0.79393   0.05071  -0.5922750000
O          O       0.09831   0.79806   0.05531  -0.5926030000
C          C       0.07557   0.71623   0.18210   0.6732900000
C          C       0.08334   0.74452   0.13818  -0.1744340000
C          C       0.04467   0.75692   0.11421  -0.1720570000
C          C       0.05277   0.78515   0.07022   0.6713660000
H          H       0.12244   0.75480   0.12553   0.1501860000
H          H       0.00542   0.74655   0.12627   0.1459920000
O          O       0.19477   0.69136   0.24999  -1.0042410000
H          H       0.20122   0.71726   0.23211   0.4348450000
O          O       0.22198   0.96201   0.30283  -0.5927220000
O          O       0.13710   0.96316   0.30343  -0.5909280000
O          O       0.23977   0.87277   0.44989  -0.6087500000
O          O       0.15394   0.87067   0.44714  -0.6139640000
C          C       0.17694   0.95177   0.32022   0.6686330000
C          C       0.16889   0.92355   0.36411  -0.1682540000
C          C       0.20756   0.91067   0.38740  -0.1774880000
C          C       0.19950   0.88256   0.43139   0.6746340000
H          H       0.12980   0.91380   0.37693   0.1446690000
H          H       0.24659   0.92056   0.37438   0.1508060000
O          O       0.05799   0.97530   0.24997  -1.0041140000
H          H       0.05209   0.94937   0.23204   0.4351880000
Al         Al      0.00049   0.83296   0.00101   1.6783220000
Al         Al      0.12567   0.83365   0.00097   1.6816750000
O          O       0.11587   0.70496   0.30308  -0.5892690000
O          O       0.13664   0.96130   0.19911  -0.6088480000
O          O       0.03036   0.70327   0.30332  -0.5960730000
O          O       0.22204   0.96142   0.19922  -0.6145040000
O          O       0.15627   0.87269   0.05059  -0.5959040000
O          O       0.24004   0.86870   0.05547  -0.5888210000
C          C       0.20047   0.88141   0.07043   0.6711710000
C          C       0.20786   0.90922   0.11493  -0.1685880000
C          C       0.16921   0.92291   0.13719  -0.1766370000
C          C       0.17683   0.95064   0.18179   0.6742590000
H          H       0.24663   0.91795   0.12920   0.1445990000
H          H       0.13046   0.91405   0.12283   0.1509870000
O          O       0.06880   0.85835  -0.00009  -1.0025010000
H          H       0.07453   0.88381   0.48109   0.4344360000
O          O       0.09548   0.79398   0.45007  -0.6140200000
O          O       0.01051   0.79570   0.44690  -0.6086170000
C          C       0.05072   0.78402   0.43130   0.6742670000
C          C       0.04356   0.75598   0.38706  -0.1756280000
C          C       0.08260   0.74301   0.36462  -0.1699730000
C          C       0.07540   0.71491   0.32043   0.6705200000
H          H       0.00482   0.74637   0.37295   0.1509970000
H          H       0.12147   0.75271   0.37826   0.1443920000
O          O       0.18192   0.80823  -0.00009  -1.0021740000
H          H       0.17546   0.78276   0.48100   0.4344580000
Al         Al      0.37634   0.66696   0.25127   1.6807690000
Al         Al      0.25121   0.66638   0.25126   1.6843980000
O          O       0.28042   0.70519   0.19934  -0.6123120000
O          O       0.36588   0.70545   0.19913  -0.6095660000
O          O       0.26251   0.79393   0.05071  -0.5917890000
O          O       0.34831   0.79806   0.05531  -0.5930300000
C          C       0.32556   0.71622   0.18210   0.6734260000
C          C       0.33334   0.74451   0.13817  -0.1744030000
C          C       0.29467   0.75692   0.11422  -0.1720680000
C          C       0.30277   0.78516   0.07022   0.6713660000
H          H       0.37244   0.75479   0.12551   0.1500740000
H          H       0.25542   0.74657   0.12629   0.1460240000
O          O       0.44477   0.69137   0.24999  -1.0035410000
H          H       0.45119   0.71715   0.23184   0.4343730000
O          O       0.47198   0.96201   0.30283  -0.5927020000
O          O       0.38708   0.96316   0.30344  -0.5907200000
O          O       0.48976   0.87276   0.44989  -0.6085080000
O          O       0.40393   0.87067   0.44714  -0.6139420000
C          C       0.42692   0.95175   0.32022   0.6686050000
C          C       0.41887   0.92352   0.36408  -0.1686310000
C          C       0.45755   0.91061   0.38736  -0.1767790000
C          C       0.44950   0.88254   0.43137   0.6745820000
H          H       0.37979   0.91379   0.37694   0.1448440000
H          H       0.49657   0.92048   0.37430   0.1503210000
O          O       0.30799   0.97529   0.24996  -1.0036500000
H          H       0.30211   0.94938   0.23202   0.4349190000
Al         Al      0.25048   0.83296   0.00102   1.6777550000
Al         Al      0.37567   0.83366   0.00097   1.6821610000
O          O       0.36586   0.70496   0.30308  -0.5890900000
O          O       0.38664   0.96128   0.19912  -0.6090980000
O          O       0.28036   0.70328   0.30332  -0.5963920000
O          O       0.47204   0.96142   0.19922  -0.6147280000
O          O       0.40627   0.87270   0.05059  -0.5961180000
O          O       0.49005   0.86870   0.05546  -0.5889310000
C          C       0.45047   0.88141   0.07043   0.6712420000
C          C       0.45787   0.90920   0.11495  -0.1687060000
C          C       0.41922   0.92288   0.13723  -0.1764890000
C          C       0.42684   0.95062   0.18181   0.6746570000
H          H       0.49665   0.91795   0.12918   0.1446550000
H          H       0.38046   0.91398   0.12288   0.1507770000
O          O       0.31880   0.85835  -0.00009  -1.0024930000
H          H       0.32454   0.88382   0.48111   0.4344360000
O          O       0.34547   0.79397   0.45009  -0.6140160000
O          O       0.26049   0.79570   0.44690  -0.6089390000
C          C       0.30071   0.78402   0.43130   0.6744900000
C          C       0.29355   0.75596   0.38709  -0.1754820000
C          C       0.33260   0.74301   0.36462  -0.1702780000
C          C       0.32540   0.71491   0.32043   0.6707970000
H          H       0.25481   0.74632   0.37300   0.1510280000
H          H       0.37147   0.75273   0.37823   0.1445610000
O          O       0.43191   0.80825  -0.00007  -1.0027990000
H          H       0.42538   0.78252   0.48157   0.4348040000
Al         Al      0.62634   0.66696   0.25126   1.6812430000
Al         Al      0.50121   0.66638   0.25127   1.6843320000
O          O       0.53042   0.70519   0.19934  -0.6124010000
O          O       0.61587   0.70546   0.19914  -0.6093430000
O          O       0.51251   0.79393   0.05071  -0.5922750000
O          O       0.59831   0.79806   0.05531  -0.5926030000
C          C       0.57556   0.71623   0.18210   0.6732900000
C          C       0.58335   0.74452   0.13818  -0.1744340000
C          C       0.54467   0.75692   0.11421  -0.1720570000
C          C       0.55278   0.78515   0.07022   0.6713660000
H          H       0.62244   0.75480   0.12553   0.1501860000
H          H       0.50542   0.74655   0.12627   0.1459920000
O          O       0.69477   0.69136   0.24999  -1.0042410000
H          H       0.70122   0.71726   0.23211   0.4348450000
O          O       0.72198   0.96201   0.30283  -0.5927220000
O          O       0.63710   0.96316   0.30343  -0.5909280000
O          O       0.73977   0.87277   0.44989  -0.6087500000
O          O       0.65394   0.87067   0.44714  -0.6139640000
C          C       0.67694   0.95177   0.32022   0.6686330000
C          C       0.66889   0.92355   0.36411  -0.1682540000
C          C       0.70756   0.91067   0.38740  -0.1774880000
C          C       0.69950   0.88256   0.43139   0.6746340000
H          H       0.62980   0.91380   0.37693   0.1446690000
H          H       0.74659   0.92056   0.37438   0.1508060000
O          O       0.55800   0.97530   0.24997  -1.0041140000
H          H       0.55209   0.94937   0.23204   0.4351880000
Al         Al      0.50048   0.83296   0.00101   1.6783220000
Al         Al      0.62567   0.83365   0.00097   1.6816750000
O          O       0.61587   0.70496   0.30308  -0.5892690000
O          O       0.63664   0.96130   0.19911  -0.6088480000
O          O       0.53036   0.70327   0.30332  -0.5960730000
O          O       0.72204   0.96142   0.19922  -0.6145040000
O          O       0.65627   0.87269   0.05059  -0.5959040000
O          O       0.74004   0.86870   0.05547  -0.5888210000
C          C       0.70047   0.88141   0.07043   0.6711710000
C          C       0.70786   0.90922   0.11493  -0.1685880000
C          C       0.66921   0.92291   0.13719  -0.1766370000
C          C       0.67683   0.95064   0.18179   0.6742590000
H          H       0.74663   0.91795   0.12920   0.1445990000
H          H       0.63046   0.91405   0.12283   0.1509870000
O          O       0.56881   0.85835  -0.00009  -1.0025010000
H          H       0.57454   0.88381   0.48109   0.4344360000
O          O       0.59549   0.79398   0.45007  -0.6140200000
O          O       0.51051   0.79570   0.44690  -0.6086170000
C          C       0.55072   0.78402   0.43130   0.6742670000
C          C       0.54356   0.75598   0.38706  -0.1756280000
C          C       0.58260   0.74301   0.36462  -0.1699730000
C          C       0.57540   0.71491   0.32043   0.6705200000
H          H       0.50482   0.74637   0.37295   0.1509970000
H          H       0.62146   0.75271   0.37826   0.1443920000
O          O       0.68192   0.80823  -0.00009  -1.0021740000
H          H       0.67546   0.78276   0.48100   0.4344580000
Al         Al      0.87634   0.66696   0.25127   1.6807690000
Al         Al      0.75121   0.66638   0.25126   1.6843980000
O          O       0.78042   0.70519   0.19934  -0.6123120000
O          O       0.86587   0.70545   0.19913  -0.6095660000
O          O       0.76251   0.79393   0.05071  -0.5917890000
O          O       0.84831   0.79806   0.05531  -0.5930300000
C          C       0.82556   0.71622   0.18210   0.6734260000
C          C       0.83334   0.74451   0.13817  -0.1744030000
C          C       0.79467   0.75692   0.11422  -0.1720680000
C          C       0.80277   0.78516   0.07022   0.6713660000
H          H       0.87244   0.75479   0.12551   0.1500740000
H          H       0.75542   0.74657   0.12629   0.1460240000
O          O       0.94477   0.69137   0.24999  -1.0035410000
H          H       0.95119   0.71715   0.23184   0.4343730000
O          O       0.97198   0.96201   0.30283  -0.5927020000
O          O       0.88709   0.96316   0.30344  -0.5907200000
O          O       0.98976   0.87276   0.44989  -0.6085080000
O          O       0.90393   0.87067   0.44714  -0.6139420000
C          C       0.92692   0.95175   0.32022   0.6686050000
C          C       0.91887   0.92352   0.36408  -0.1686310000
C          C       0.95755   0.91061   0.38736  -0.1767790000
C          C       0.94950   0.88254   0.43137   0.6745820000
H          H       0.87979   0.91379   0.37694   0.1448440000
H          H       0.99657   0.92048   0.37430   0.1503210000
O          O       0.80799   0.97529   0.24996  -1.0036500000
H          H       0.80210   0.94938   0.23202   0.4349190000
Al         Al      0.75048   0.83296   0.00102   1.6777550000
Al         Al      0.87567   0.83366   0.00097   1.6821610000
O          O       0.86586   0.70496   0.30308  -0.5890900000
O          O       0.88664   0.96128   0.19912  -0.6090980000
O          O       0.78036   0.70328   0.30332  -0.5963920000
O          O       0.97204   0.96142   0.19922  -0.6147280000
O          O       0.90628   0.87270   0.05059  -0.5961180000
O          O       0.99004   0.86870   0.05546  -0.5889310000
C          C       0.95047   0.88141   0.07043   0.6712420000
C          C       0.95787   0.90920   0.11495  -0.1687060000
C          C       0.91922   0.92288   0.13723  -0.1764890000
C          C       0.92684   0.95062   0.18181   0.6746570000
H          H       0.99665   0.91795   0.12918   0.1446550000
H          H       0.88047   0.91398   0.12288   0.1507770000
O          O       0.81880   0.85835  -0.00009  -1.0024930000
H          H       0.82454   0.88382   0.48111   0.4344360000
O          O       0.84547   0.79397   0.45009  -0.6140160000
O          O       0.76049   0.79570   0.44690  -0.6089390000
C          C       0.80071   0.78402   0.43130   0.6744900000
C          C       0.79355   0.75596   0.38709  -0.1754820000
C          C       0.83260   0.74301   0.36462  -0.1702780000
C          C       0.82539   0.71491   0.32043   0.6707970000
H          H       0.75481   0.74632   0.37300   0.1510280000
H          H       0.87147   0.75273   0.37823   0.1445610000
O          O       0.93191   0.80825  -0.00007  -1.0027990000
H          H       0.92539   0.78252   0.48157   0.4348040000
Al         Al      0.12634   0.00029   0.75126   1.6812430000
Al         Al      0.00121  -0.00028   0.75127   1.6843320000
O          O       0.03042   0.03852   0.69934  -0.6124010000
O          O       0.11587   0.03879   0.69914  -0.6093430000
O          O       0.01252   0.12726   0.55071  -0.5922750000
O          O       0.09831   0.13140   0.55531  -0.5926030000
C          C       0.07556   0.04956   0.68211   0.6732900000
C          C       0.08335   0.07785   0.63818  -0.1744340000
C          C       0.04468   0.09025   0.61421  -0.1720570000
C          C       0.05277   0.11849   0.57022   0.6713660000
H          H       0.12244   0.08813   0.62553   0.1501860000
H          H       0.00542   0.07989   0.62627   0.1459920000
O          O       0.19477   0.02469   0.74999  -1.0042410000
H          H       0.20122   0.05059   0.73211   0.4348450000
O          O       0.22198   0.29534   0.80283  -0.5927220000
O          O       0.13709   0.29649   0.80342  -0.5909280000
O          O       0.23977   0.20610   0.94990  -0.6087500000
O          O       0.15394   0.20401   0.94713  -0.6139640000
C          C       0.17693   0.28510   0.82022   0.6686330000
C          C       0.16889   0.25688   0.86411  -0.1682540000
C          C       0.20756   0.24400   0.88740  -0.1774880000
C          C       0.19950   0.21590   0.93139   0.6746340000
H          H       0.12980   0.24713   0.87693   0.1446690000
H          H       0.24659   0.25389   0.87438   0.1508060000
O          O       0.05799   0.30863   0.74996  -1.0041140000
H          H       0.05209   0.28271   0.73204   0.4351880000
Al         Al      0.00048   0.16629   0.50101   1.6783220000
Al         Al      0.12567   0.16699   0.50098   1.6816750000
O          O       0.11587   0.03829   0.80309  -0.5892690000
O          O       0.13664   0.29463   0.69911  -0.6088480000
O          O       0.03036   0.03661   0.80332  -0.5960730000
O          O       0.22204   0.29475   0.69922  -0.6145040000
O          O       0.15627   0.20603   0.55059  -0.5959040000
O          O       0.24004   0.20203   0.55546  -0.5888210000
C          C       0.20046   0.21475   0.57043   0.6711710000
C          C       0.20786   0.24255   0.61494  -0.1685880000
C          C       0.16921   0.25625   0.63719  -0.1766370000
C          C       0.17683   0.28398   0.68179   0.6742590000
H          H       0.24663   0.25128   0.62920   0.1445990000
H          H       0.13046   0.24738   0.62282   0.1509870000
O          O       0.06881   0.19168   0.49991  -1.0025010000
H          H       0.07454   0.21715   0.98109   0.4344360000
O          O       0.09549   0.12731   0.95007  -0.6140200000
O          O       0.01051   0.12903   0.94690  -0.6086170000
C          C       0.05072   0.11736   0.93130   0.6742670000
C          C       0.04356   0.08931   0.88706  -0.1756280000
C          C       0.08260   0.07634   0.86462  -0.1699730000
C          C       0.07540   0.04825   0.82043   0.6705200000
H          H       0.00482   0.07970   0.87295   0.1509970000
H          H       0.12146   0.08604   0.87826   0.1443920000
O          O       0.18192   0.14156   0.49991  -1.0021740000
H          H       0.17546   0.11610   0.98100   0.4344580000
Al         Al      0.37634   0.00029   0.75127   1.6807690000
Al         Al      0.25121  -0.00029   0.75126   1.6843980000
O          O       0.28042   0.03852   0.69934  -0.6123120000
O          O       0.36588   0.03879   0.69912  -0.6095660000
O          O       0.26251   0.12727   0.55071  -0.5917890000
O          O       0.34831   0.13139   0.55531  -0.5930300000
C          C       0.32556   0.04956   0.68210   0.6734260000
C          C       0.33334   0.07784   0.63818  -0.1744030000
C          C       0.29467   0.09025   0.61421  -0.1720680000
C          C       0.30277   0.11849   0.57022   0.6713660000
H          H       0.37244   0.08812   0.62551   0.1500740000
H          H       0.25542   0.07990   0.62629   0.1460240000
O          O       0.44477   0.02471   0.74999  -1.0035410000
H          H       0.45119   0.05049   0.73184   0.4343730000
O          O       0.47198   0.29534   0.80283  -0.5927020000
O          O       0.38709   0.29650   0.80344  -0.5907200000
O          O       0.48976   0.20609   0.94989  -0.6085080000
O          O       0.40393   0.20400   0.94713  -0.6139420000
C          C       0.42692   0.28509   0.82022   0.6686050000
C          C       0.41887   0.25686   0.86408  -0.1686310000
C          C       0.45755   0.24395   0.88736  -0.1767790000
C          C       0.44950   0.21587   0.93137   0.6745820000
H          H       0.37979   0.24713   0.87694   0.1448440000
H          H       0.49657   0.25381   0.87430   0.1503210000
O          O       0.30799   0.30863   0.74996  -1.0036500000
H          H       0.30211   0.28271   0.73202   0.4349190000
Al         Al      0.25048   0.16630   0.50102   1.6777550000
Al         Al      0.37567   0.16699   0.50098   1.6821610000
O          O       0.36586   0.03829   0.80309  -0.5890900000
O          O       0.38664   0.29462   0.69912  -0.6090980000
O          O       0.28036   0.03661   0.80332  -0.5963920000
O          O       0.47204   0.29475   0.69922  -0.6147280000
O          O       0.40627   0.20603   0.55059  -0.5961180000
O          O       0.49005   0.20203   0.55546  -0.5889310000
C          C       0.45047   0.21474   0.57043   0.6712420000
C          C       0.45787   0.24254   0.61494  -0.1687060000
C          C       0.41922   0.25621   0.63723  -0.1764890000
C          C       0.42684   0.28396   0.68180   0.6746570000
H          H       0.49665   0.25128   0.62918   0.1446550000
H          H       0.38047   0.24732   0.62289   0.1507770000
O          O       0.31880   0.19168   0.49991  -1.0024930000
H          H       0.32453   0.21715   0.98111   0.4344360000
O          O       0.34547   0.12730   0.95008  -0.6140160000
O          O       0.26049   0.12903   0.94690  -0.6089390000
C          C       0.30071   0.11735   0.93131   0.6744900000
C          C       0.29355   0.08929   0.88709  -0.1754820000
C          C       0.33260   0.07634   0.86462  -0.1702780000
C          C       0.32540   0.04825   0.82043   0.6707970000
H          H       0.25481   0.07965   0.87299   0.1510280000
H          H       0.37147   0.08606   0.87823   0.1445610000
O          O       0.43191   0.14158   0.49993  -1.0027990000
H          H       0.42539   0.11585   0.98157   0.4348040000
Al         Al      0.62634   0.00029   0.75126   1.6812430000
Al         Al      0.50122  -0.00028   0.75127   1.6843320000
O          O       0.53042   0.03852   0.69934  -0.6124010000
O          O       0.61587   0.03879   0.69914  -0.6093430000
O          O       0.51252   0.12726   0.55071  -0.5922750000
O          O       0.59831   0.13140   0.55531  -0.5926030000
C          C       0.57557   0.04956   0.68211   0.6732900000
C          C       0.58334   0.07785   0.63818  -0.1744340000
C          C       0.54468   0.09025   0.61421  -0.1720570000
C          C       0.55278   0.11849   0.57022   0.6713660000
H          H       0.62244   0.08813   0.62553   0.1501860000
H          H       0.50542   0.07989   0.62627   0.1459920000
O          O       0.69477   0.02469   0.74999  -1.0042410000
H          H       0.70122   0.05059   0.73211   0.4348450000
O          O       0.72198   0.29534   0.80283  -0.5927220000
O          O       0.63709   0.29649   0.80342  -0.5909280000
O          O       0.73977   0.20610   0.94990  -0.6087500000
O          O       0.65394   0.20401   0.94713  -0.6139640000
C          C       0.67693   0.28510   0.82022   0.6686330000
C          C       0.66889   0.25688   0.86411  -0.1682540000
C          C       0.70756   0.24400   0.88740  -0.1774880000
C          C       0.69951   0.21590   0.93139   0.6746340000
H          H       0.62980   0.24713   0.87693   0.1446690000
H          H       0.74659   0.25389   0.87438   0.1508060000
O          O       0.55800   0.30863   0.74996  -1.0041140000
H          H       0.55209   0.28271   0.73204   0.4351880000
Al         Al      0.50049   0.16629   0.50101   1.6783220000
Al         Al      0.62567   0.16699   0.50098   1.6816750000
O          O       0.61587   0.03829   0.80309  -0.5892690000
O          O       0.63664   0.29463   0.69911  -0.6088480000
O          O       0.53037   0.03661   0.80332  -0.5960730000
O          O       0.72204   0.29475   0.69922  -0.6145040000
O          O       0.65627   0.20603   0.55059  -0.5959040000
O          O       0.74004   0.20203   0.55546  -0.5888210000
C          C       0.70047   0.21475   0.57043   0.6711710000
C          C       0.70785   0.24255   0.61494  -0.1685880000
C          C       0.66921   0.25625   0.63719  -0.1766370000
C          C       0.67683   0.28398   0.68179   0.6742590000
H          H       0.74663   0.25128   0.62920   0.1445990000
H          H       0.63047   0.24738   0.62282   0.1509870000
O          O       0.56881   0.19168   0.49991  -1.0025010000
H          H       0.57454   0.21715   0.98109   0.4344360000
O          O       0.59548   0.12731   0.95007  -0.6140200000
O          O       0.51051   0.12903   0.94690  -0.6086170000
C          C       0.55072   0.11736   0.93130   0.6742670000
C          C       0.54356   0.08931   0.88706  -0.1756280000
C          C       0.58260   0.07634   0.86462  -0.1699730000
C          C       0.57540   0.04825   0.82043   0.6705200000
H          H       0.50482   0.07970   0.87295   0.1509970000
H          H       0.62146   0.08604   0.87826   0.1443920000
O          O       0.68191   0.14156   0.49991  -1.0021740000
H          H       0.67546   0.11610   0.98100   0.4344580000
Al         Al      0.87634   0.00029   0.75127   1.6807690000
Al         Al      0.75121  -0.00029   0.75126   1.6843980000
O          O       0.78042   0.03852   0.69934  -0.6123120000
O          O       0.86587   0.03879   0.69912  -0.6095660000
O          O       0.76251   0.12727   0.55071  -0.5917890000
O          O       0.84831   0.13139   0.55531  -0.5930300000
C          C       0.82556   0.04956   0.68210   0.6734260000
C          C       0.83334   0.07784   0.63818  -0.1744030000
C          C       0.79467   0.09025   0.61421  -0.1720680000
C          C       0.80277   0.11849   0.57022   0.6713660000
H          H       0.87244   0.08812   0.62551   0.1500740000
H          H       0.75542   0.07990   0.62629   0.1460240000
O          O       0.94477   0.02471   0.74999  -1.0035410000
H          H       0.95119   0.05049   0.73184   0.4343730000
O          O       0.97198   0.29534   0.80283  -0.5927020000
O          O       0.88708   0.29650   0.80344  -0.5907200000
O          O       0.98976   0.20609   0.94989  -0.6085080000
O          O       0.90393   0.20400   0.94713  -0.6139420000
C          C       0.92692   0.28509   0.82022   0.6686050000
C          C       0.91887   0.25686   0.86408  -0.1686310000
C          C       0.95755   0.24395   0.88736  -0.1767790000
C          C       0.94950   0.21587   0.93137   0.6745820000
H          H       0.87979   0.24713   0.87694   0.1448440000
H          H       0.99657   0.25381   0.87430   0.1503210000
O          O       0.80799   0.30863   0.74996  -1.0036500000
H          H       0.80210   0.28271   0.73202   0.4349190000
Al         Al      0.75048   0.16630   0.50102   1.6777550000
Al         Al      0.87566   0.16699   0.50098   1.6821610000
O          O       0.86586   0.03829   0.80309  -0.5890900000
O          O       0.88663   0.29462   0.69912  -0.6090980000
O          O       0.78036   0.03661   0.80332  -0.5963920000
O          O       0.97204   0.29475   0.69922  -0.6147280000
O          O       0.90628   0.20603   0.55059  -0.5961180000
O          O       0.99004   0.20203   0.55546  -0.5889310000
C          C       0.95047   0.21474   0.57043   0.6712420000
C          C       0.95786   0.24254   0.61494  -0.1687060000
C          C       0.91921   0.25621   0.63723  -0.1764890000
C          C       0.92684   0.28396   0.68180   0.6746570000
H          H       0.99664   0.25128   0.62918   0.1446550000
H          H       0.88046   0.24732   0.62289   0.1507770000
O          O       0.81880   0.19168   0.49991  -1.0024930000
H          H       0.82453   0.21715   0.98111   0.4344360000
O          O       0.84547   0.12730   0.95008  -0.6140160000
O          O       0.76049   0.12903   0.94690  -0.6089390000
C          C       0.80071   0.11735   0.93131   0.6744900000
C          C       0.79355   0.08929   0.88709  -0.1754820000
C          C       0.83260   0.07634   0.86462  -0.1702780000
C          C       0.82539   0.04825   0.82043   0.6707970000
H          H       0.75481   0.07965   0.87299   0.1510280000
H          H       0.87147   0.08606   0.87823   0.1445610000
O          O       0.93191   0.14158   0.49993  -1.0027990000
H          H       0.92538   0.11585   0.98157   0.4348040000
Al         Al      0.12634   0.33363   0.75126   1.6812430000
Al         Al      0.00121   0.33305   0.75127   1.6843320000
O          O       0.03042   0.37185   0.69934  -0.6124010000
O          O       0.11587   0.37213   0.69914  -0.6093430000
O          O       0.01251   0.46059   0.55071  -0.5922750000
O          O       0.09831   0.46473   0.55531  -0.5926030000
C          C       0.07556   0.38290   0.68211   0.6732900000
C          C       0.08335   0.41118   0.63818  -0.1744340000
C          C       0.04467   0.42358   0.61421  -0.1720570000
C          C       0.05278   0.45182   0.57022   0.6713660000
H          H       0.12244   0.42147   0.62553   0.1501860000
H          H       0.00542   0.41322   0.62627   0.1459920000
O          O       0.19477   0.35803   0.74999  -1.0042410000
H          H       0.20122   0.38392   0.73211   0.4348450000
O          O       0.22198   0.62868   0.80283  -0.5927220000
O          O       0.13709   0.62983   0.80342  -0.5909280000
O          O       0.23977   0.53943   0.94990  -0.6087500000
O          O       0.15394   0.53734   0.94713  -0.6139640000
C          C       0.17693   0.61843   0.82022   0.6686330000
C          C       0.16889   0.59022   0.86411  -0.1682540000
C          C       0.20756   0.57734   0.88740  -0.1774880000
C          C       0.19950   0.54923   0.93139   0.6746340000
H          H       0.12980   0.58046   0.87693   0.1446690000
H          H       0.24659   0.58723   0.87438   0.1508060000
O          O       0.05799   0.64197   0.74996  -1.0041140000
H          H       0.05209   0.61604   0.73204   0.4351880000
Al         Al      0.00048   0.49963   0.50101   1.6783220000
Al         Al      0.12567   0.50032   0.50098   1.6816750000
O          O       0.11587   0.37163   0.80309  -0.5892690000
O          O       0.13664   0.62796   0.69911  -0.6088480000
O          O       0.03036   0.36994   0.80332  -0.5960730000
O          O       0.22204   0.62809   0.69922  -0.6145040000
O          O       0.15627   0.53936   0.55059  -0.5959040000
O          O       0.24004   0.53536   0.55546  -0.5888210000
C          C       0.20047   0.54808   0.57043   0.6711710000
C          C       0.20786   0.57589   0.61494  -0.1685880000
C          C       0.16921   0.58958   0.63719  -0.1766370000
C          C       0.17683   0.61731   0.68179   0.6742590000
H          H       0.24663   0.58461   0.62920   0.1445990000
H          H       0.13046   0.58071   0.62282   0.1509870000
O          O       0.06880   0.52501   0.49991  -1.0025010000
H          H       0.07454   0.55048   0.98109   0.4344360000
O          O       0.09548   0.46064   0.95007  -0.6140200000
O          O       0.01051   0.46236   0.94690  -0.6086170000
C          C       0.05072   0.45069   0.93130   0.6742670000
C          C       0.04356   0.42265   0.88706  -0.1756280000
C          C       0.08260   0.40967   0.86462  -0.1699730000
C          C       0.07540   0.38158   0.82043   0.6705200000
H          H       0.00482   0.41304   0.87295   0.1509970000
H          H       0.12147   0.41937   0.87826   0.1443920000
O          O       0.18192   0.47489   0.49991  -1.0021740000
H          H       0.17546   0.44943   0.98100   0.4344580000
Al         Al      0.37634   0.33363   0.75127   1.6807690000
Al         Al      0.25121   0.33304   0.75126   1.6843980000
O          O       0.28042   0.37185   0.69934  -0.6123120000
O          O       0.36588   0.37212   0.69912  -0.6095660000
O          O       0.26251   0.46060   0.55071  -0.5917890000
O          O       0.34831   0.46473   0.55531  -0.5930300000
C          C       0.32556   0.38289   0.68210   0.6734260000
C          C       0.33334   0.41118   0.63818  -0.1744030000
C          C       0.29467   0.42359   0.61421  -0.1720680000
C          C       0.30277   0.45182   0.57022   0.6713660000
H          H       0.37244   0.42145   0.62551   0.1500740000
H          H       0.25542   0.41324   0.62629   0.1460240000
O          O       0.44477   0.35804   0.74999  -1.0035410000
H          H       0.45119   0.38382   0.73184   0.4343730000
O          O       0.47198   0.62868   0.80283  -0.5927020000
O          O       0.38708   0.62983   0.80344  -0.5907200000
O          O       0.48976   0.53942   0.94989  -0.6085080000
O          O       0.40393   0.53733   0.94713  -0.6139420000
C          C       0.42692   0.61842   0.82022   0.6686050000
C          C       0.41888   0.59019   0.86408  -0.1686310000
C          C       0.45755   0.57728   0.88736  -0.1767790000
C          C       0.44950   0.54920   0.93137   0.6745820000
H          H       0.37979   0.58046   0.87694   0.1448440000
H          H       0.49657   0.58714   0.87430   0.1503210000
O          O       0.30799   0.64196   0.74996  -1.0036500000
H          H       0.30211   0.61604   0.73202   0.4349190000
Al         Al      0.25048   0.49963   0.50102   1.6777550000
Al         Al      0.37566   0.50032   0.50098   1.6821610000
O          O       0.36586   0.37163   0.80309  -0.5890900000
O          O       0.38664   0.62795   0.69912  -0.6090980000
O          O       0.28036   0.36994   0.80332  -0.5963920000
O          O       0.47204   0.62809   0.69922  -0.6147280000
O          O       0.40627   0.53936   0.55059  -0.5961180000
O          O       0.49005   0.53537   0.55546  -0.5889310000
C          C       0.45047   0.54807   0.57043   0.6712420000
C          C       0.45787   0.57587   0.61494  -0.1687060000
C          C       0.41922   0.58954   0.63723  -0.1764890000
C          C       0.42684   0.61729   0.68180   0.6746570000
H          H       0.49665   0.58461   0.62918   0.1446550000
H          H       0.38046   0.58065   0.62289   0.1507770000
O          O       0.31880   0.52501   0.49991  -1.0024930000
H          H       0.32453   0.55049   0.98111   0.4344360000
O          O       0.34547   0.46064   0.95008  -0.6140160000
O          O       0.26049   0.46237   0.94690  -0.6089390000
C          C       0.30071   0.45068   0.93131   0.6744900000
C          C       0.29355   0.42262   0.88709  -0.1754820000
C          C       0.33260   0.40968   0.86462  -0.1702780000
C          C       0.32540   0.38158   0.82043   0.6707970000
H          H       0.25481   0.41299   0.87299   0.1510280000
H          H       0.37147   0.41940   0.87823   0.1445610000
O          O       0.43191   0.47491   0.49993  -1.0027990000
H          H       0.42539   0.44919   0.98157   0.4348040000
Al         Al      0.62634   0.33363   0.75126   1.6812430000
Al         Al      0.50122   0.33305   0.75127   1.6843320000
O          O       0.53042   0.37185   0.69934  -0.6124010000
O          O       0.61587   0.37213   0.69914  -0.6093430000
O          O       0.51252   0.46059   0.55071  -0.5922750000
O          O       0.59831   0.46473   0.55531  -0.5926030000
C          C       0.57556   0.38290   0.68211   0.6732900000
C          C       0.58335   0.41118   0.63818  -0.1744340000
C          C       0.54468   0.42358   0.61421  -0.1720570000
C          C       0.55278   0.45182   0.57022   0.6713660000
H          H       0.62244   0.42147   0.62553   0.1501860000
H          H       0.50542   0.41322   0.62627   0.1459920000
O          O       0.69477   0.35803   0.74999  -1.0042410000
H          H       0.70122   0.38392   0.73211   0.4348450000
O          O       0.72198   0.62868   0.80283  -0.5927220000
O          O       0.63709   0.62983   0.80342  -0.5909280000
O          O       0.73978   0.53943   0.94990  -0.6087500000
O          O       0.65394   0.53734   0.94713  -0.6139640000
C          C       0.67694   0.61843   0.82022   0.6686330000
C          C       0.66889   0.59022   0.86411  -0.1682540000
C          C       0.70756   0.57734   0.88740  -0.1774880000
C          C       0.69951   0.54923   0.93139   0.6746340000
H          H       0.62980   0.58046   0.87693   0.1446690000
H          H       0.74659   0.58723   0.87438   0.1508060000
O          O       0.55800   0.64197   0.74996  -1.0041140000
H          H       0.55209   0.61604   0.73204   0.4351880000
Al         Al      0.50049   0.49963   0.50101   1.6783220000
Al         Al      0.62567   0.50032   0.50098   1.6816750000
O          O       0.61587   0.37163   0.80309  -0.5892690000
O          O       0.63664   0.62796   0.69911  -0.6088480000
O          O       0.53036   0.36994   0.80332  -0.5960730000
O          O       0.72204   0.62809   0.69922  -0.6145040000
O          O       0.65627   0.53936   0.55059  -0.5959040000
O          O       0.74004   0.53536   0.55546  -0.5888210000
C          C       0.70047   0.54808   0.57043   0.6711710000
C          C       0.70786   0.57589   0.61494  -0.1685880000
C          C       0.66921   0.58958   0.63719  -0.1766370000
C          C       0.67683   0.61731   0.68179   0.6742590000
H          H       0.74663   0.58461   0.62920   0.1445990000
H          H       0.63047   0.58071   0.62282   0.1509870000
O          O       0.56881   0.52501   0.49991  -1.0025010000
H          H       0.57454   0.55048   0.98109   0.4344360000
O          O       0.59548   0.46064   0.95007  -0.6140200000
O          O       0.51051   0.46236   0.94690  -0.6086170000
C          C       0.55072   0.45069   0.93130   0.6742670000
C          C       0.54356   0.42265   0.88706  -0.1756280000
C          C       0.58260   0.40967   0.86462  -0.1699730000
C          C       0.57540   0.38158   0.82043   0.6705200000
H          H       0.50482   0.41304   0.87295   0.1509970000
H          H       0.62147   0.41937   0.87826   0.1443920000
O          O       0.68192   0.47489   0.49991  -1.0021740000
H          H       0.67546   0.44943   0.98100   0.4344580000
Al         Al      0.87634   0.33363   0.75127   1.6807690000
Al         Al      0.75121   0.33304   0.75126   1.6843980000
O          O       0.78042   0.37185   0.69934  -0.6123120000
O          O       0.86587   0.37212   0.69912  -0.6095660000
O          O       0.76251   0.46060   0.55071  -0.5917890000
O          O       0.84831   0.46473   0.55531  -0.5930300000
C          C       0.82556   0.38289   0.68210   0.6734260000
C          C       0.83334   0.41118   0.63818  -0.1744030000
C          C       0.79467   0.42359   0.61421  -0.1720680000
C          C       0.80277   0.45182   0.57022   0.6713660000
H          H       0.87243   0.42145   0.62551   0.1500740000
H          H       0.75542   0.41324   0.62629   0.1460240000
O          O       0.94477   0.35804   0.74999  -1.0035410000
H          H       0.95119   0.38382   0.73184   0.4343730000
O          O       0.97198   0.62868   0.80283  -0.5927020000
O          O       0.88708   0.62983   0.80344  -0.5907200000
O          O       0.98976   0.53942   0.94989  -0.6085080000
O          O       0.90394   0.53733   0.94713  -0.6139420000
C          C       0.92692   0.61842   0.82022   0.6686050000
C          C       0.91887   0.59019   0.86408  -0.1686310000
C          C       0.95755   0.57728   0.88736  -0.1767790000
C          C       0.94950   0.54920   0.93137   0.6745820000
H          H       0.87979   0.58046   0.87694   0.1448440000
H          H       0.99657   0.58714   0.87430   0.1503210000
O          O       0.80799   0.64196   0.74996  -1.0036500000
H          H       0.80210   0.61604   0.73202   0.4349190000
Al         Al      0.75048   0.49963   0.50102   1.6777550000
Al         Al      0.87567   0.50032   0.50098   1.6821610000
O          O       0.86586   0.37163   0.80309  -0.5890900000
O          O       0.88663   0.62795   0.69912  -0.6090980000
O          O       0.78036   0.36994   0.80332  -0.5963920000
O          O       0.97204   0.62809   0.69922  -0.6147280000
O          O       0.90628   0.53936   0.55059  -0.5961180000
O          O       0.99004   0.53537   0.55546  -0.5889310000
C          C       0.95047   0.54807   0.57043   0.6712420000
C          C       0.95787   0.57587   0.61494  -0.1687060000
C          C       0.91922   0.58954   0.63723  -0.1764890000
C          C       0.92684   0.61729   0.68180   0.6746570000
H          H       0.99664   0.58461   0.62918   0.1446550000
H          H       0.88047   0.58065   0.62289   0.1507770000
O          O       0.81880   0.52501   0.49991  -1.0024930000
H          H       0.82453   0.55049   0.98111   0.4344360000
O          O       0.84547   0.46064   0.95008  -0.6140160000
O          O       0.76049   0.46237   0.94690  -0.6089390000
C          C       0.80071   0.45068   0.93131   0.6744900000
C          C       0.79355   0.42262   0.88709  -0.1754820000
C          C       0.83260   0.40968   0.86462  -0.1702780000
C          C       0.82539   0.38158   0.82043   0.6707970000
H          H       0.75481   0.41299   0.87299   0.1510280000
H          H       0.87147   0.41940   0.87823   0.1445610000
O          O       0.93191   0.47491   0.49993  -1.0027990000
H          H       0.92538   0.44919   0.98157   0.4348040000
Al         Al      0.12634   0.66696   0.75126   1.6812430000
Al         Al      0.00122   0.66638   0.75127   1.6843320000
O          O       0.03042   0.70519   0.69934  -0.6124010000
O          O       0.11587   0.70546   0.69914  -0.6093430000
O          O       0.01251   0.79393   0.55071  -0.5922750000
O          O       0.09831   0.79806   0.55531  -0.5926030000
C          C       0.07556   0.71623   0.68211   0.6732900000
C          C       0.08334   0.74452   0.63818  -0.1744340000
C          C       0.04467   0.75692   0.61421  -0.1720570000
C          C       0.05277   0.78515   0.57022   0.6713660000
H          H       0.12244   0.75480   0.62553   0.1501860000
H          H       0.00542   0.74655   0.62627   0.1459920000
O          O       0.19477   0.69136   0.74999  -1.0042410000
H          H       0.20122   0.71726   0.73211   0.4348450000
O          O       0.22198   0.96201   0.80283  -0.5927220000
O          O       0.13709   0.96316   0.80342  -0.5909280000
O          O       0.23977   0.87277   0.94990  -0.6087500000
O          O       0.15394   0.87067   0.94713  -0.6139640000
C          C       0.17694   0.95177   0.82022   0.6686330000
C          C       0.16889   0.92355   0.86411  -0.1682540000
C          C       0.20756   0.91067   0.88740  -0.1774880000
C          C       0.19950   0.88256   0.93139   0.6746340000
H          H       0.12980   0.91380   0.87693   0.1446690000
H          H       0.24659   0.92056   0.87438   0.1508060000
O          O       0.05799   0.97530   0.74996  -1.0041140000
H          H       0.05209   0.94937   0.73204   0.4351880000
Al         Al      0.00048   0.83296   0.50101   1.6783220000
Al         Al      0.12567   0.83365   0.50098   1.6816750000
O          O       0.11587   0.70496   0.80309  -0.5892690000
O          O       0.13663   0.96130   0.69911  -0.6088480000
O          O       0.03037   0.70327   0.80332  -0.5960730000
O          O       0.22204   0.96142   0.69922  -0.6145040000
O          O       0.15627   0.87269   0.55059  -0.5959040000
O          O       0.24004   0.86870   0.55546  -0.5888210000
C          C       0.20047   0.88141   0.57043   0.6711710000
C          C       0.20786   0.90922   0.61494  -0.1685880000
C          C       0.16921   0.92291   0.63719  -0.1766370000
C          C       0.17683   0.95064   0.68179   0.6742590000
H          H       0.24663   0.91795   0.62920   0.1445990000
H          H       0.13046   0.91405   0.62282   0.1509870000
O          O       0.06880   0.85835   0.49991  -1.0025010000
H          H       0.07454   0.88381   0.98109   0.4344360000
O          O       0.09549   0.79398   0.95007  -0.6140200000
O          O       0.01051   0.79570   0.94690  -0.6086170000
C          C       0.05072   0.78402   0.93130   0.6742670000
C          C       0.04356   0.75598   0.88706  -0.1756280000
C          C       0.08260   0.74301   0.86462  -0.1699730000
C          C       0.07540   0.71491   0.82043   0.6705200000
H          H       0.00482   0.74637   0.87295   0.1509970000
H          H       0.12147   0.75271   0.87826   0.1443920000
O          O       0.18192   0.80823   0.49991  -1.0021740000
H          H       0.17546   0.78276   0.98100   0.4344580000
Al         Al      0.37634   0.66696   0.75127   1.6807690000
Al         Al      0.25121   0.66638   0.75126   1.6843980000
O          O       0.28042   0.70519   0.69934  -0.6123120000
O          O       0.36588   0.70545   0.69912  -0.6095660000
O          O       0.26251   0.79393   0.55071  -0.5917890000
O          O       0.34831   0.79806   0.55531  -0.5930300000
C          C       0.32556   0.71622   0.68210   0.6734260000
C          C       0.33334   0.74451   0.63818  -0.1744030000
C          C       0.29467   0.75692   0.61421  -0.1720680000
C          C       0.30277   0.78516   0.57022   0.6713660000
H          H       0.37244   0.75479   0.62551   0.1500740000
H          H       0.25542   0.74657   0.62629   0.1460240000
O          O       0.44477   0.69137   0.74999  -1.0035410000
H          H       0.45119   0.71715   0.73184   0.4343730000
O          O       0.47198   0.96201   0.80283  -0.5927020000
O          O       0.38708   0.96316   0.80344  -0.5907200000
O          O       0.48976   0.87276   0.94989  -0.6085080000
O          O       0.40393   0.87067   0.94713  -0.6139420000
C          C       0.42692   0.95175   0.82022   0.6686050000
C          C       0.41887   0.92352   0.86408  -0.1686310000
C          C       0.45755   0.91061   0.88736  -0.1767790000
C          C       0.44950   0.88254   0.93137   0.6745820000
H          H       0.37979   0.91379   0.87694   0.1448440000
H          H       0.49657   0.92048   0.87430   0.1503210000
O          O       0.30799   0.97529   0.74996  -1.0036500000
H          H       0.30211   0.94938   0.73202   0.4349190000
Al         Al      0.25048   0.83296   0.50102   1.6777550000
Al         Al      0.37566   0.83366   0.50098   1.6821610000
O          O       0.36586   0.70496   0.80309  -0.5890900000
O          O       0.38664   0.96128   0.69912  -0.6090980000
O          O       0.28036   0.70328   0.80332  -0.5963920000
O          O       0.47204   0.96142   0.69922  -0.6147280000
O          O       0.40627   0.87270   0.55059  -0.5961180000
O          O       0.49005   0.86870   0.55546  -0.5889310000
C          C       0.45047   0.88141   0.57043   0.6712420000
C          C       0.45786   0.90920   0.61494  -0.1687060000
C          C       0.41922   0.92288   0.63723  -0.1764890000
C          C       0.42684   0.95062   0.68180   0.6746570000
H          H       0.49665   0.91795   0.62918   0.1446550000
H          H       0.38046   0.91398   0.62289   0.1507770000
O          O       0.31880   0.85835   0.49991  -1.0024930000
H          H       0.32454   0.88382   0.98111   0.4344360000
O          O       0.34547   0.79397   0.95008  -0.6140160000
O          O       0.26049   0.79570   0.94690  -0.6089390000
C          C       0.30071   0.78402   0.93131   0.6744900000
C          C       0.29355   0.75596   0.88709  -0.1754820000
C          C       0.33260   0.74301   0.86462  -0.1702780000
C          C       0.32539   0.71491   0.82043   0.6707970000
H          H       0.25481   0.74632   0.87299   0.1510280000
H          H       0.37147   0.75273   0.87823   0.1445610000
O          O       0.43191   0.80825   0.49993  -1.0027990000
H          H       0.42538   0.78252   0.98157   0.4348040000
Al         Al      0.62634   0.66696   0.75126   1.6812430000
Al         Al      0.50122   0.66638   0.75127   1.6843320000
O          O       0.53042   0.70519   0.69934  -0.6124010000
O          O       0.61587   0.70546   0.69914  -0.6093430000
O          O       0.51252   0.79393   0.55071  -0.5922750000
O          O       0.59831   0.79806   0.55531  -0.5926030000
C          C       0.57556   0.71623   0.68211   0.6732900000
C          C       0.58335   0.74452   0.63818  -0.1744340000
C          C       0.54468   0.75692   0.61421  -0.1720570000
C          C       0.55278   0.78515   0.57022   0.6713660000
H          H       0.62244   0.75480   0.62553   0.1501860000
H          H       0.50542   0.74655   0.62627   0.1459920000
O          O       0.69477   0.69136   0.74999  -1.0042410000
H          H       0.70122   0.71726   0.73211   0.4348450000
O          O       0.72198   0.96201   0.80283  -0.5927220000
O          O       0.63709   0.96316   0.80342  -0.5909280000
O          O       0.73977   0.87277   0.94990  -0.6087500000
O          O       0.65394   0.87067   0.94713  -0.6139640000
C          C       0.67694   0.95177   0.82022   0.6686330000
C          C       0.66889   0.92355   0.86411  -0.1682540000
C          C       0.70756   0.91067   0.88740  -0.1774880000
C          C       0.69951   0.88256   0.93139   0.6746340000
H          H       0.62980   0.91380   0.87693   0.1446690000
H          H       0.74659   0.92056   0.87438   0.1508060000
O          O       0.55800   0.97530   0.74996  -1.0041140000
H          H       0.55209   0.94937   0.73204   0.4351880000
Al         Al      0.50049   0.83296   0.50101   1.6783220000
Al         Al      0.62567   0.83365   0.50098   1.6816750000
O          O       0.61587   0.70496   0.80309  -0.5892690000
O          O       0.63664   0.96130   0.69911  -0.6088480000
O          O       0.53036   0.70327   0.80332  -0.5960730000
O          O       0.72204   0.96142   0.69922  -0.6145040000
O          O       0.65627   0.87269   0.55059  -0.5959040000
O          O       0.74004   0.86870   0.55546  -0.5888210000
C          C       0.70047   0.88141   0.57043   0.6711710000
C          C       0.70786   0.90922   0.61494  -0.1685880000
C          C       0.66921   0.92291   0.63719  -0.1766370000
C          C       0.67683   0.95064   0.68179   0.6742590000
H          H       0.74663   0.91795   0.62920   0.1445990000
H          H       0.63047   0.91405   0.62282   0.1509870000
O          O       0.56881   0.85835   0.49991  -1.0025010000
H          H       0.57454   0.88381   0.98109   0.4344360000
O          O       0.59549   0.79398   0.95007  -0.6140200000
O          O       0.51051   0.79570   0.94690  -0.6086170000
C          C       0.55072   0.78402   0.93130   0.6742670000
C          C       0.54356   0.75598   0.88706  -0.1756280000
C          C       0.58260   0.74301   0.86462  -0.1699730000
C          C       0.57540   0.71491   0.82043   0.6705200000
H          H       0.50482   0.74637   0.87295   0.1509970000
H          H       0.62146   0.75271   0.87826   0.1443920000
O          O       0.68192   0.80823   0.49991  -1.0021740000
H          H       0.67546   0.78276   0.98100   0.4344580000
Al         Al      0.87634   0.66696   0.75127   1.6807690000
Al         Al      0.75121   0.66638   0.75126   1.6843980000
O          O       0.78042   0.70519   0.69934  -0.6123120000
O          O       0.86587   0.70545   0.69912  -0.6095660000
O          O       0.76252   0.79393   0.55071  -0.5917890000
O          O       0.84831   0.79806   0.55531  -0.5930300000
C          C       0.82556   0.71622   0.68210   0.6734260000
C          C       0.83334   0.74451   0.63818  -0.1744030000
C          C       0.79467   0.75692   0.61421  -0.1720680000
C          C       0.80277   0.78516   0.57022   0.6713660000
H          H       0.87244   0.75479   0.62551   0.1500740000
H          H       0.75542   0.74657   0.62629   0.1460240000
O          O       0.94477   0.69137   0.74999  -1.0035410000
H          H       0.95119   0.71715   0.73184   0.4343730000
O          O       0.97198   0.96201   0.80283  -0.5927020000
O          O       0.88708   0.96316   0.80344  -0.5907200000
O          O       0.98976   0.87276   0.94989  -0.6085080000
O          O       0.90393   0.87067   0.94713  -0.6139420000
C          C       0.92692   0.95175   0.82022   0.6686050000
C          C       0.91887   0.92352   0.86408  -0.1686310000
C          C       0.95755   0.91061   0.88736  -0.1767790000
C          C       0.94950   0.88254   0.93137   0.6745820000
H          H       0.87979   0.91379   0.87694   0.1448440000
H          H       0.99657   0.92048   0.87430   0.1503210000
O          O       0.80799   0.97529   0.74996  -1.0036500000
H          H       0.80211   0.94938   0.73202   0.4349190000
Al         Al      0.75048   0.83296   0.50102   1.6777550000
Al         Al      0.87566   0.83366   0.50098   1.6821610000
O          O       0.86586   0.70496   0.80309  -0.5890900000
O          O       0.88663   0.96128   0.69912  -0.6090980000
O          O       0.78036   0.70328   0.80332  -0.5963920000
O          O       0.97204   0.96142   0.69922  -0.6147280000
O          O       0.90628   0.87270   0.55059  -0.5961180000
O          O       0.99004   0.86870   0.55546  -0.5889310000
C          C       0.95047   0.88141   0.57043   0.6712420000
C          C       0.95786   0.90920   0.61494  -0.1687060000
C          C       0.91921   0.92288   0.63723  -0.1764890000
C          C       0.92684   0.95062   0.68180   0.6746570000
H          H       0.99664   0.91795   0.62918   0.1446550000
H          H       0.88046   0.91398   0.62289   0.1507770000
O          O       0.81880   0.85835   0.49991  -1.0024930000
H          H       0.82453   0.88382   0.98111   0.4344360000
O          O       0.84547   0.79397   0.95008  -0.6140160000
O          O       0.76049   0.79570   0.94690  -0.6089390000
C          C       0.80071   0.78402   0.93131   0.6744900000
C          C       0.79355   0.75596   0.88709  -0.1754820000
C          C       0.83260   0.74301   0.86462  -0.1702780000
C          C       0.82539   0.71491   0.82043   0.6707970000
H          H       0.75481   0.74632   0.87299   0.1510280000
H          H       0.87147   0.75273   0.87823   0.1445610000
O          O       0.93191   0.80825   0.49993  -1.0027990000
H          H       0.92538   0.78252   0.98157   0.4348040000
