data_crystal
 
_cell_length_a    43.26220
_cell_length_b    43.27300
_cell_length_c    31.35600
_cell_angle_alpha 90.00000
_cell_angle_beta  90.00000
_cell_angle_gamma 90.00000
 
_symmetry_space_group_name_Hall 'P 1'
_symmetry_space_group_name_H-M  'P 1'
 
loop_
_symmetry_equiv_pos_as_xyz
 'x,y,z' 
 
loop_
_atom_site_label
_atom_site_type_symbol
_atom_site_fract_x
_atom_site_fract_y
_atom_site_fract_z
_atom_site_charge
Al         Al      0.15871   0.37478   0.20934   1.6687390000
Al         Al      0.40856   0.12480   0.04257   1.6690690000
Al         Al      0.09131   0.37520   0.04265   1.6669260000
Al         Al      0.34136   0.12518   0.20926   1.6688980000
Al         Al      0.12521   0.40862   0.29269   1.6670280000
Al         Al      0.37519   0.15870   0.12597   1.6676000000
Al         Al      0.12481   0.34132   0.12599   1.6669940000
Al         Al      0.37482   0.09127   0.29259   1.6670760000
Al         Al      0.34141   0.37475   0.20942   1.6692860000
Al         Al      0.09140   0.12476   0.04253   1.6685240000
Al         Al      0.40866   0.37522   0.04263   1.6686270000
Al         Al      0.15864   0.12524   0.20923   1.6681980000
Al         Al      0.37522   0.34137   0.12603   1.6683200000
Al         Al      0.12524   0.09130   0.29249   1.6690010000
Al         Al      0.37483   0.40869   0.29268   1.6694390000
Al         Al      0.12479   0.15865   0.12585   1.6699000000
O          O       0.19089   0.37827   0.25041  -0.5828060000
O          O       0.16886   0.40951   0.30001  -0.5950320000
O          O       0.44086   0.12829   0.08351  -0.5829000000
O          O       0.41889   0.15967   0.13301  -0.5960860000
O          O       0.05910   0.37173   0.08360  -0.5830590000
O          O       0.08113   0.34042   0.13316  -0.5953120000
O          O       0.30913   0.12164   0.25013  -0.5837320000
O          O       0.33110   0.09033   0.29972  -0.5954300000
O          O       0.12170   0.44090   0.00027  -0.5829420000
O          O       0.09039   0.41890   0.04981  -0.5947820000
O          O       0.37165   0.19090   0.16697  -0.5836360000
O          O       0.34033   0.16888   0.21651  -0.5947660000
O          O       0.12831   0.30908   0.16696  -0.5828830000
O          O       0.15958   0.33110   0.21655  -0.5954390000
O          O       0.37832   0.05905   0.00031  -0.5830900000
O          O       0.40951   0.08112   0.04993  -0.5945280000
O          O       0.05903   0.37823   0.00041  -0.5860700000
O          O       0.08128   0.40887   0.28335  -0.6145320000
O          O       0.30901   0.12814   0.16719  -0.5869190000
O          O       0.33127   0.15854   0.11661  -0.6162470000
O          O       0.19095   0.37169   0.16707  -0.5862910000
O          O       0.16879   0.34093   0.11673  -0.6143470000
O          O       0.44096   0.12173   0.00058  -0.5875700000
O          O       0.41876   0.09141   0.28320  -0.6165980000
O          O       0.12833   0.44088   0.25030  -0.5869600000
O          O       0.15928   0.41876   0.20013  -0.6153180000
O          O       0.37810   0.19104   0.08382  -0.5879490000
O          O       0.40832   0.16868   0.03318  -0.6163800000
O          O       0.12175   0.30907   0.08365  -0.5854420000
O          O       0.09092   0.33124   0.03338  -0.6148900000
O          O       0.37196   0.05896   0.25048  -0.5871150000
O          O       0.34169   0.08129   0.19989  -0.6165490000
O          O       0.30912   0.37172   0.16710  -0.5864010000
O          O       0.33127   0.34099   0.11668  -0.6139950000
O          O       0.05920   0.12178   0.00020  -0.5868170000
O          O       0.08128   0.09083   0.28334  -0.6146060000
O          O       0.44090   0.37822   0.00032  -0.5858720000
O          O       0.41879   0.40909   0.28340  -0.6148710000
O          O       0.19090   0.12826   0.16706  -0.5866700000
O          O       0.16873   0.15890   0.11662  -0.6155270000
O          O       0.37830   0.30908   0.08379  -0.5861620000
O          O       0.40881   0.33130   0.03326  -0.6155580000
O          O       0.12817   0.05904   0.25025  -0.5862200000
O          O       0.15890   0.08127   0.19996  -0.6153980000
O          O       0.37176   0.44100   0.25058  -0.5872000000
O          O       0.34146   0.41863   0.19998  -0.6158390000
O          O       0.12186   0.19093   0.08362  -0.5872450000
O          O       0.09119   0.16870   0.03328  -0.6156240000
O          O       0.44087   0.37161   0.08360  -0.5840900000
O          O       0.41887   0.34053   0.13340  -0.5941500000
O          O       0.19097   0.12179   0.25000  -0.5830560000
O          O       0.16896   0.09023   0.29920  -0.5970740000
O          O       0.30910   0.37827   0.25031  -0.5830900000
O          O       0.33113   0.40961   0.29980  -0.5954310000
O          O       0.05906   0.12821   0.08331  -0.5831110000
O          O       0.08107   0.15974   0.13256  -0.5970070000
O          O       0.37163   0.30916   0.16697  -0.5830840000
O          O       0.34053   0.33115   0.21674  -0.5953910000
O          O       0.12172   0.05913   0.00019  -0.5836980000
O          O       0.09051   0.08110   0.04991  -0.5949050000
O          O       0.37832   0.44092   0.00034  -0.5831250000
O          O       0.40964   0.41889   0.04987  -0.5954420000
O          O       0.12828   0.19088   0.16691  -0.5834960000
O          O       0.15956   0.16889   0.21651  -0.5952110000
O          O       0.12820   0.37675   0.25215  -1.0042560000
O          O       0.37816   0.12678   0.08540  -1.0029910000
O          O       0.12183   0.37325   0.08549  -1.0035100000
O          O       0.37181   0.12326   0.25210  -1.0027590000
O          O       0.12323   0.37814   0.00219  -1.0032290000
O          O       0.37326   0.12824   0.16874  -1.0041690000
O          O       0.12679   0.37181   0.16884  -1.0036500000
O          O       0.37669   0.12180   0.00197  -1.0030410000
O          O       0.37322   0.37175   0.16887  -1.0051450000
O          O       0.12331   0.12174   0.00208  -1.0051060000
O          O       0.37677   0.37823   0.00216  -1.0051120000
O          O       0.12671   0.12823   0.16876  -1.0044120000
O          O       0.37822   0.37324   0.08551  -1.0050010000
O          O       0.12819   0.12326   0.25212  -1.0045480000
O          O       0.37188   0.37681   0.25221  -1.0047440000
O          O       0.12182   0.12674   0.08543  -1.0047140000
C          C       0.19182   0.39524   0.28373   0.6305430000
C          C       0.22204   0.39948   0.30587  -0.0598710000
C          C       0.22215   0.41206   0.01385  -0.0735220000
C          C       0.44181   0.14528   0.11681   0.6316710000
C          C       0.47201   0.14940   0.13900  -0.0597760000
C          C       0.47222   0.16190   0.18036  -0.0738140000
C          C       0.05819   0.35474   0.11691   0.6314610000
C          C       0.02798   0.35056   0.13907  -0.0598300000
C          C       0.02784   0.33804   0.18042  -0.0739700000
C          C       0.30820   0.10470   0.28348   0.6317840000
C          C       0.27801   0.10063   0.30568  -0.0602490000
C          C       0.27783   0.08811   0.01370  -0.0737000000
C          C       0.10471   0.44183   0.03359   0.6303780000
C          C       0.10052   0.47204   0.05577  -0.0587270000
C          C       0.08799   0.47227   0.09713  -0.0742770000
C          C       0.35465   0.19181   0.20031   0.6312100000
C          C       0.35052   0.22203   0.22248  -0.0598620000
C          C       0.33799   0.22222   0.26385  -0.0740590000
C          C       0.14529   0.30816   0.20029   0.6313030000
C          C       0.14950   0.27795   0.22249  -0.0603510000
C          C       0.16207   0.27778   0.26383  -0.0735620000
C          C       0.39523   0.05815   0.03370   0.6298460000
C          C       0.39943   0.02798   0.05597  -0.0593450000
C          C       0.41209   0.02782   0.09725  -0.0741950000
C          C       0.05823   0.39472   0.30007   0.6242610000
C          C       0.02802   0.39869   0.27766  -0.0579070000
C          C       0.02787   0.41123   0.23631  -0.0757230000
C          C       0.30819   0.14456   0.13348   0.6262980000
C          C       0.27798   0.14862   0.11118  -0.0576670000
C          C       0.27788   0.16115   0.06984  -0.0753160000
C          C       0.19180   0.35517   0.13341   0.6241420000
C          C       0.22203   0.35130   0.11097  -0.0571500000
C          C       0.22219   0.33876   0.06961  -0.0756360000
C          C       0.44183   0.10537   0.30013   0.6271360000
C          C       0.47208   0.10138   0.27782  -0.0576370000
C          C       0.47219   0.08886   0.23648  -0.0743110000
C          C       0.14494   0.44173   0.21672   0.6254500000
C          C       0.14877   0.47196   0.19431  -0.0567010000
C          C       0.16126   0.47214   0.15294  -0.0764260000
C          C       0.39447   0.19181   0.05003   0.6273480000
C          C       0.39860   0.22201   0.02775  -0.0577760000
C          C       0.41118   0.22212   0.31977  -0.0752880000
C          C       0.10519   0.30823   0.05002   0.6239280000
C          C       0.10127   0.27800   0.02762  -0.0577030000
C          C       0.08876   0.27782   0.31958  -0.0752410000
C          C       0.35554   0.05817   0.21674   0.6268830000
C          C       0.35139   0.02794   0.19451  -0.0577190000
C          C       0.33883   0.02781   0.15320  -0.0744650000
C          C       0.30828   0.35524   0.13340   0.6234420000
C          C       0.27807   0.35134   0.11096  -0.0570310000
C          C       0.27791   0.33878   0.06963  -0.0747230000
C          C       0.05833   0.10519   0.29995   0.6241740000
C          C       0.02810   0.10131   0.27762  -0.0569880000
C          C       0.02788   0.08871   0.23632  -0.0751410000
C          C       0.44178   0.39480   0.30005   0.6237640000
C          C       0.47201   0.39870   0.27767  -0.0574560000
C          C       0.47217   0.41124   0.23632  -0.0756800000
C          C       0.19175   0.14475   0.13339   0.6250960000
C          C       0.22198   0.14868   0.11106  -0.0574180000
C          C       0.22220   0.16122   0.06972  -0.0753140000
C          C       0.39473   0.30826   0.05008   0.6253400000
C          C       0.39873   0.27802   0.02776  -0.0579090000
C          C       0.41127   0.27781   0.31974  -0.0747670000
C          C       0.14471   0.05822   0.21662   0.6250550000
C          C       0.14869   0.02799   0.19428  -0.0570780000
C          C       0.16124   0.02783   0.15295  -0.0764600000
C          C       0.35537   0.44174   0.21682   0.6263820000
C          C       0.35129   0.47194   0.19447  -0.0575820000
C          C       0.33875   0.47212   0.15312  -0.0760130000
C          C       0.10534   0.19175   0.04998   0.6260620000
C          C       0.10131   0.22198   0.02764  -0.0582140000
C          C       0.08876   0.22213   0.31963  -0.0755550000
C          C       0.44182   0.35472   0.11701   0.6310040000
C          C       0.47206   0.35051   0.13903  -0.0601900000
C          C       0.47217   0.33795   0.18033  -0.0737260000
C          C       0.19190   0.10466   0.28315   0.6329550000
C          C       0.22207   0.10053   0.30539  -0.0607660000
C          C       0.22215   0.08801   0.01339  -0.0735770000
C          C       0.30818   0.39529   0.28361   0.6310300000
C          C       0.27800   0.39949   0.30587  -0.0597040000
C          C       0.27785   0.41203   0.01389  -0.0729360000
C          C       0.05814   0.14533   0.11648   0.6329320000
C          C       0.02795   0.14946   0.13868  -0.0606730000
C          C       0.02791   0.16197   0.18002  -0.0740050000
C          C       0.35476   0.30821   0.20038   0.6311600000
C          C       0.35057   0.27796   0.22240  -0.0607590000
C          C       0.33798   0.27786   0.26371  -0.0730990000
C          C       0.10472   0.05817   0.03349   0.6313620000
C          C       0.10047   0.02796   0.05554  -0.0607970000
C          C       0.08793   0.02793   0.09686  -0.0733640000
C          C       0.39533   0.44184   0.03363   0.6309180000
C          C       0.39951   0.47202   0.05587  -0.0609550000
C          C       0.41202   0.47213   0.09723  -0.0722980000
C          C       0.14526   0.19183   0.20025   0.6309830000
C          C       0.14947   0.22201   0.22246  -0.0599930000
C          C       0.16205   0.22211   0.26379  -0.0736190000
C          C       0.25002   0.39259   0.28545  -0.0895430000
C          C       0.24999   0.41778   0.03481  -0.0971000000
C          C      -0.00007   0.14247   0.11844  -0.0882020000
C          C       0.00013   0.16761   0.20115  -0.0951230000
C          C       0.00003   0.35747   0.11862  -0.0887520000
C          C      -0.00002   0.33231   0.20133  -0.0955240000
C          C       0.25009   0.10755   0.28514  -0.0882920000
C          C       0.24993   0.08239   0.03453  -0.0955350000
C          C       0.10742  -0.00003   0.03523  -0.0890540000
C          C       0.08226   0.00015   0.11794  -0.0953010000
C          C       0.14256   0.24999   0.20208  -0.0892490000
C          C       0.16777   0.24993   0.28476  -0.0962070000
C          C       0.00001   0.39171   0.29803  -0.0862680000
C          C       0.00002   0.41691   0.21539  -0.0936720000
C          C       0.24995   0.14168   0.13151  -0.0877010000
C          C       0.25007   0.16686   0.04884  -0.0934630000
C          C       0.25005   0.35830   0.13130  -0.0873230000
C          C       0.25006   0.33312   0.04869  -0.0944820000
C          C       0.00014   0.10834   0.29808  -0.0880500000
C          C      -0.00001   0.08314   0.21546  -0.0941470000
C          C       0.14173  -0.00003   0.21463  -0.0874740000
C          C       0.16687  -0.00001   0.13201  -0.0939850000
C          C       0.10827   0.24999   0.04798  -0.0861010000
C          C       0.08312   0.24996   0.29867  -0.0945060000
C          C       0.39171   0.25002   0.04812  -0.0873980000
C          C       0.41685   0.24995   0.29881  -0.0939530000
C          C       0.35829  -0.00007   0.21486  -0.0878980000
C          C       0.33313  -0.00001   0.13223  -0.0936280000
C          C       0.35746   0.24998   0.20200  -0.0883670000
C          C       0.33224   0.25007   0.28471  -0.0961200000
C          C       0.39256   0.00001   0.03552  -0.0883070000
C          C       0.41779  -0.00003   0.11816  -0.0975000000
H          H       0.20008   0.41739   0.02871   0.1202090000
H          H       0.45020   0.16721   0.19539   0.1201090000
H          H       0.04987   0.33277   0.19543   0.1203700000
H          H       0.29984   0.08277   0.02876   0.1203920000
H          H       0.08267   0.45028   0.11223   0.1196960000
H          H       0.33271   0.20021   0.27889   0.1201010000
H          H       0.16740   0.29980   0.27880   0.1200110000
H          H       0.41753   0.04982   0.11220   0.1205180000
H          H       0.04985   0.41667   0.22125   0.1192860000
H          H       0.29992   0.16651   0.05493   0.1190990000
H          H       0.20019   0.33336   0.05458   0.1186730000
H          H       0.45016   0.08349   0.22156   0.1182700000
H          H       0.16668   0.45017   0.13789   0.1193840000
H          H       0.41659   0.20011   0.30483   0.1192760000
H          H       0.08336   0.29979   0.30451   0.1185630000
H          H       0.33350   0.04985   0.13829   0.1182740000
H          H       0.29989   0.33331   0.05461   0.1188100000
H          H       0.04987   0.08320   0.22133   0.1192670000
H          H       0.45017   0.41667   0.22133   0.1189060000
H          H       0.20021   0.16672   0.05472   0.1187360000
H          H       0.41666   0.29978   0.30468   0.1183790000
H          H       0.16669   0.04983   0.13799   0.1190870000
H          H       0.33333   0.45013   0.13810   0.1195430000
H          H       0.08333   0.20014   0.30463   0.1190580000
H          H       0.45008   0.33259   0.19513   0.1198410000
H          H       0.20005   0.08265   0.02816   0.1197130000
H          H       0.29988   0.41734   0.02890   0.1197440000
H          H       0.05000   0.16731   0.19479   0.1197740000
H          H       0.33264   0.29994   0.27851   0.1197560000
H          H       0.08261   0.05002   0.11164   0.1199240000
H          H       0.41724   0.45009   0.11226   0.1198240000
H          H       0.16738   0.20005   0.27869   0.1201000000
H          H       0.25006   0.38294   0.25342   0.1358870000
H          H       0.25013   0.17608   0.01659   0.1151480000
H          H      -0.00020   0.13274   0.08646   0.1352810000
H          H      -0.00001   0.42608   0.18311   0.1153270000
H          H       0.00005   0.36719   0.08663   0.1357570000
H          H      -0.00008   0.07388   0.18323   0.1153360000
H          H       0.25022   0.11730   0.25317   0.1355320000
H          H       0.25005   0.32390   0.01643   0.1155790000
H          H       0.11710  -0.00012   0.00321   0.1354700000
H          H       0.32399   0.00003   0.09994   0.1150210000
H          H       0.13289   0.25000   0.17006   0.1361410000
H          H       0.42601   0.24993   0.26653   0.1153410000
H          H       0.00004   0.38199   0.33003   0.1351790000
H          H       0.00021   0.17679   0.23343   0.1139900000
H          H       0.24990   0.13196   0.16350   0.1360890000
H          H       0.24995   0.42701   0.06707   0.1146190000
H          H       0.25006   0.36801   0.16329   0.1349730000
H          H       0.24983   0.07322   0.06682   0.1144290000
H          H       0.00028   0.11807   0.33007   0.1355070000
H          H      -0.00007   0.32317   0.23363   0.1141260000
H          H       0.13199   0.00000   0.24661   0.1353490000
H          H       0.42702  -0.00007   0.15042   0.1148350000
H          H       0.11798   0.24998   0.07999   0.1353000000
H          H       0.32294   0.25016   0.31694   0.1142810000
H          H       0.38199   0.25002   0.08013   0.1355670000
H          H       0.17702   0.24990   0.31701   0.1143690000
H          H       0.36798  -0.00010   0.24686   0.1359610000
H          H       0.07304   0.00028   0.15020   0.1141690000
H          H       0.36711   0.24992   0.16995   0.1357650000
H          H       0.07395   0.24995   0.26638   0.1156980000
H          H       0.38293   0.00005   0.00349   0.1352930000
H          H       0.17605   0.00001   0.09975   0.1153400000
H          H       0.12690   0.14133   0.32115   0.4207060000
H          H       0.12320   0.10861   0.15453   0.4201710000
H          H       0.35864   0.37691   0.07128   0.4206170000
H          H       0.39148   0.37312   0.23799   0.4205560000
H          H       0.10860   0.12695   0.23788   0.4206370000
H          H       0.14142   0.12301   0.07122   0.4205650000
H          H       0.37683   0.39136   0.15467   0.4205590000
H          H       0.37322   0.35862   0.32128   0.4208970000
H          H       0.35863   0.12373   0.07071   0.4190370000
H          H       0.39129   0.12641   0.23732   0.4190580000
H          H       0.12676   0.35852   0.32129   0.4200050000
H          H       0.12325   0.39139   0.15452   0.4199280000
H          H       0.37654   0.10878   0.15400   0.4204420000
H          H       0.37350   0.14117   0.32021   0.4193210000
H          H       0.10857   0.37322   0.23793   0.4204120000
H          H       0.14144   0.37682   0.07121   0.4199560000
Al         Al      0.65871   0.37478   0.20934   1.6687390000
Al         Al      0.90856   0.12480   0.04257   1.6690690000
Al         Al      0.59131   0.37520   0.04265   1.6669260000
Al         Al      0.84136   0.12518   0.20926   1.6688980000
Al         Al      0.62521   0.40862   0.29269   1.6670280000
Al         Al      0.87519   0.15870   0.12597   1.6676000000
Al         Al      0.62481   0.34132   0.12599   1.6669940000
Al         Al      0.87482   0.09127   0.29259   1.6670760000
Al         Al      0.84141   0.37475   0.20942   1.6692860000
Al         Al      0.59140   0.12476   0.04253   1.6685240000
Al         Al      0.90865   0.37522   0.04263   1.6686270000
Al         Al      0.65864   0.12524   0.20923   1.6681980000
Al         Al      0.87522   0.34137   0.12603   1.6683200000
Al         Al      0.62523   0.09130   0.29249   1.6690010000
Al         Al      0.87483   0.40869   0.29268   1.6694390000
Al         Al      0.62479   0.15865   0.12585   1.6699000000
O          O       0.69089   0.37827   0.25041  -0.5828060000
O          O       0.66887   0.40951   0.30001  -0.5950320000
O          O       0.94086   0.12829   0.08351  -0.5829000000
O          O       0.91889   0.15967   0.13301  -0.5960860000
O          O       0.55910   0.37173   0.08360  -0.5830590000
O          O       0.58113   0.34042   0.13316  -0.5953120000
O          O       0.80914   0.12164   0.25013  -0.5837320000
O          O       0.83110   0.09033   0.29972  -0.5954300000
O          O       0.62171   0.44090   0.00027  -0.5829420000
O          O       0.59039   0.41890   0.04981  -0.5947820000
O          O       0.87165   0.19090   0.16697  -0.5836360000
O          O       0.84034   0.16888   0.21651  -0.5947660000
O          O       0.62831   0.30908   0.16696  -0.5828830000
O          O       0.65958   0.33110   0.21655  -0.5954390000
O          O       0.87832   0.05905   0.00031  -0.5830900000
O          O       0.90951   0.08112   0.04993  -0.5945280000
O          O       0.55904   0.37823   0.00041  -0.5860700000
O          O       0.58128   0.40887   0.28335  -0.6145320000
O          O       0.80901   0.12814   0.16719  -0.5869190000
O          O       0.83127   0.15854   0.11661  -0.6162470000
O          O       0.69095   0.37169   0.16707  -0.5862910000
O          O       0.66879   0.34093   0.11673  -0.6143470000
O          O       0.94096   0.12173   0.00058  -0.5875700000
O          O       0.91876   0.09141   0.28320  -0.6165980000
O          O       0.62833   0.44088   0.25030  -0.5869600000
O          O       0.65929   0.41876   0.20013  -0.6153180000
O          O       0.87810   0.19104   0.08382  -0.5879490000
O          O       0.90832   0.16868   0.03318  -0.6163800000
O          O       0.62175   0.30907   0.08365  -0.5854420000
O          O       0.59092   0.33124   0.03338  -0.6148900000
O          O       0.87196   0.05896   0.25048  -0.5871150000
O          O       0.84169   0.08129   0.19989  -0.6165490000
O          O       0.80912   0.37172   0.16710  -0.5864010000
O          O       0.83127   0.34099   0.11668  -0.6139950000
O          O       0.55919   0.12178   0.00020  -0.5868170000
O          O       0.58129   0.09083   0.28334  -0.6146060000
O          O       0.94091   0.37822   0.00032  -0.5858720000
O          O       0.91879   0.40909   0.28340  -0.6148710000
O          O       0.69090   0.12826   0.16706  -0.5866700000
O          O       0.66873   0.15890   0.11662  -0.6155270000
O          O       0.87830   0.30908   0.08379  -0.5861620000
O          O       0.90881   0.33130   0.03326  -0.6155580000
O          O       0.62817   0.05904   0.25025  -0.5862200000
O          O       0.65890   0.08127   0.19996  -0.6153980000
O          O       0.87176   0.44100   0.25058  -0.5872000000
O          O       0.84146   0.41863   0.19998  -0.6158390000
O          O       0.62186   0.19093   0.08362  -0.5872450000
O          O       0.59120   0.16870   0.03328  -0.6156240000
O          O       0.94086   0.37161   0.08360  -0.5840900000
O          O       0.91887   0.34053   0.13340  -0.5941500000
O          O       0.69097   0.12179   0.25000  -0.5830560000
O          O       0.66895   0.09023   0.29920  -0.5970740000
O          O       0.80910   0.37827   0.25031  -0.5830900000
O          O       0.83113   0.40961   0.29980  -0.5954310000
O          O       0.55906   0.12821   0.08331  -0.5831110000
O          O       0.58108   0.15974   0.13256  -0.5970070000
O          O       0.87163   0.30916   0.16697  -0.5830840000
O          O       0.84054   0.33115   0.21674  -0.5953910000
O          O       0.62172   0.05913   0.00019  -0.5836980000
O          O       0.59051   0.08110   0.04991  -0.5949050000
O          O       0.87832   0.44092   0.00034  -0.5831250000
O          O       0.90964   0.41889   0.04987  -0.5954420000
O          O       0.62828   0.19088   0.16691  -0.5834960000
O          O       0.65956   0.16889   0.21651  -0.5952110000
O          O       0.62820   0.37675   0.25215  -1.0042560000
O          O       0.87816   0.12678   0.08540  -1.0029910000
O          O       0.62184   0.37325   0.08549  -1.0035100000
O          O       0.87181   0.12326   0.25210  -1.0027590000
O          O       0.62323   0.37814   0.00219  -1.0032290000
O          O       0.87326   0.12824   0.16874  -1.0041690000
O          O       0.62679   0.37181   0.16884  -1.0036500000
O          O       0.87669   0.12180   0.00197  -1.0030410000
O          O       0.87322   0.37175   0.16887  -1.0051450000
O          O       0.62331   0.12174   0.00208  -1.0051060000
O          O       0.87676   0.37823   0.00216  -1.0051120000
O          O       0.62671   0.12823   0.16876  -1.0044120000
O          O       0.87823   0.37324   0.08551  -1.0050010000
O          O       0.62819   0.12326   0.25212  -1.0045480000
O          O       0.87188   0.37681   0.25221  -1.0047440000
O          O       0.62183   0.12674   0.08543  -1.0047140000
C          C       0.69182   0.39524   0.28373   0.6305430000
C          C       0.72204   0.39948   0.30587  -0.0598710000
C          C       0.72215   0.41206   0.01385  -0.0735220000
C          C       0.94181   0.14528   0.11681   0.6316710000
C          C       0.97201   0.14940   0.13900  -0.0597760000
C          C       0.97222   0.16190   0.18036  -0.0738140000
C          C       0.55819   0.35474   0.11691   0.6314610000
C          C       0.52799   0.35056   0.13907  -0.0598300000
C          C       0.52784   0.33804   0.18042  -0.0739700000
C          C       0.80820   0.10470   0.28348   0.6317840000
C          C       0.77800   0.10063   0.30568  -0.0602490000
C          C       0.77783   0.08811   0.01370  -0.0737000000
C          C       0.60471   0.44183   0.03359   0.6303780000
C          C       0.60052   0.47204   0.05577  -0.0587270000
C          C       0.58799   0.47227   0.09713  -0.0742770000
C          C       0.85465   0.19181   0.20031   0.6312100000
C          C       0.85052   0.22203   0.22248  -0.0598620000
C          C       0.83799   0.22222   0.26385  -0.0740590000
C          C       0.64529   0.30816   0.20029   0.6313030000
C          C       0.64950   0.27795   0.22249  -0.0603510000
C          C       0.66207   0.27778   0.26383  -0.0735620000
C          C       0.89523   0.05815   0.03370   0.6298460000
C          C       0.89943   0.02798   0.05597  -0.0593450000
C          C       0.91209   0.02782   0.09725  -0.0741950000
C          C       0.55823   0.39472   0.30007   0.6242610000
C          C       0.52802   0.39869   0.27766  -0.0579070000
C          C       0.52787   0.41123   0.23631  -0.0757230000
C          C       0.80819   0.14456   0.13348   0.6262980000
C          C       0.77798   0.14862   0.11118  -0.0576670000
C          C       0.77788   0.16115   0.06984  -0.0753160000
C          C       0.69180   0.35517   0.13341   0.6241420000
C          C       0.72203   0.35130   0.11097  -0.0571500000
C          C       0.72219   0.33876   0.06961  -0.0756360000
C          C       0.94183   0.10537   0.30013   0.6271360000
C          C       0.97208   0.10138   0.27782  -0.0576370000
C          C       0.97219   0.08886   0.23648  -0.0743110000
C          C       0.64494   0.44173   0.21672   0.6254500000
C          C       0.64877   0.47196   0.19431  -0.0567010000
C          C       0.66126   0.47214   0.15294  -0.0764260000
C          C       0.89447   0.19181   0.05003   0.6273480000
C          C       0.89860   0.22201   0.02775  -0.0577760000
C          C       0.91118   0.22212   0.31977  -0.0752880000
C          C       0.60519   0.30823   0.05002   0.6239280000
C          C       0.60127   0.27800   0.02762  -0.0577030000
C          C       0.58876   0.27782   0.31958  -0.0752410000
C          C       0.85554   0.05817   0.21674   0.6268830000
C          C       0.85139   0.02794   0.19451  -0.0577190000
C          C       0.83883   0.02781   0.15320  -0.0744650000
C          C       0.80828   0.35524   0.13340   0.6234420000
C          C       0.77807   0.35134   0.11096  -0.0570310000
C          C       0.77791   0.33878   0.06963  -0.0747230000
C          C       0.55833   0.10519   0.29995   0.6241740000
C          C       0.52810   0.10131   0.27762  -0.0569880000
C          C       0.52789   0.08871   0.23632  -0.0751410000
C          C       0.94178   0.39480   0.30005   0.6237640000
C          C       0.97201   0.39870   0.27767  -0.0574560000
C          C       0.97217   0.41124   0.23632  -0.0756800000
C          C       0.69175   0.14475   0.13339   0.6250960000
C          C       0.72198   0.14868   0.11106  -0.0574180000
C          C       0.72220   0.16122   0.06972  -0.0753140000
C          C       0.89473   0.30826   0.05008   0.6253400000
C          C       0.89874   0.27802   0.02776  -0.0579090000
C          C       0.91126   0.27781   0.31974  -0.0747670000
C          C       0.64470   0.05822   0.21662   0.6250550000
C          C       0.64869   0.02799   0.19428  -0.0570780000
C          C       0.66124   0.02783   0.15295  -0.0764600000
C          C       0.85537   0.44174   0.21682   0.6263820000
C          C       0.85129   0.47194   0.19447  -0.0575820000
C          C       0.83875   0.47212   0.15312  -0.0760130000
C          C       0.60533   0.19175   0.04998   0.6260620000
C          C       0.60131   0.22198   0.02764  -0.0582140000
C          C       0.58876   0.22213   0.31963  -0.0755550000
C          C       0.94182   0.35472   0.11701   0.6310040000
C          C       0.97206   0.35051   0.13903  -0.0601900000
C          C       0.97216   0.33795   0.18033  -0.0737260000
C          C       0.69190   0.10466   0.28315   0.6329550000
C          C       0.72207   0.10053   0.30539  -0.0607660000
C          C       0.72215   0.08801   0.01339  -0.0735770000
C          C       0.80818   0.39529   0.28361   0.6310300000
C          C       0.77799   0.39949   0.30587  -0.0597040000
C          C       0.77785   0.41203   0.01389  -0.0729360000
C          C       0.55814   0.14533   0.11648   0.6329320000
C          C       0.52795   0.14946   0.13868  -0.0606730000
C          C       0.52791   0.16197   0.18002  -0.0740050000
C          C       0.85476   0.30821   0.20038   0.6311600000
C          C       0.85056   0.27796   0.22240  -0.0607590000
C          C       0.83798   0.27786   0.26371  -0.0730990000
C          C       0.60472   0.05817   0.03349   0.6313620000
C          C       0.60047   0.02796   0.05554  -0.0607970000
C          C       0.58793   0.02793   0.09686  -0.0733640000
C          C       0.89533   0.44184   0.03363   0.6309180000
C          C       0.89952   0.47202   0.05587  -0.0609550000
C          C       0.91202   0.47213   0.09723  -0.0722980000
C          C       0.64526   0.19183   0.20025   0.6309830000
C          C       0.64947   0.22201   0.22246  -0.0599930000
C          C       0.66205   0.22211   0.26379  -0.0736190000
C          C       0.75002   0.39259   0.28545  -0.0895430000
C          C       0.74999   0.41778   0.03481  -0.0971000000
C          C       0.49993   0.14247   0.11844  -0.0882020000
C          C       0.50013   0.16761   0.20115  -0.0951230000
C          C       0.50003   0.35747   0.11862  -0.0887520000
C          C       0.49999   0.33231   0.20133  -0.0955240000
C          C       0.75009   0.10755   0.28514  -0.0882920000
C          C       0.74994   0.08239   0.03453  -0.0955350000
C          C       0.60742  -0.00003   0.03523  -0.0890540000
C          C       0.58226   0.00015   0.11794  -0.0953010000
C          C       0.64256   0.24999   0.20208  -0.0892490000
C          C       0.66777   0.24993   0.28476  -0.0962070000
C          C       0.50001   0.39171   0.29803  -0.0862680000
C          C       0.50002   0.41691   0.21539  -0.0936720000
C          C       0.74995   0.14168   0.13151  -0.0877010000
C          C       0.75007   0.16686   0.04884  -0.0934630000
C          C       0.75004   0.35830   0.13130  -0.0873230000
C          C       0.75006   0.33312   0.04869  -0.0944820000
C          C       0.50014   0.10834   0.29808  -0.0880500000
C          C       0.50000   0.08314   0.21546  -0.0941470000
C          C       0.64173  -0.00003   0.21463  -0.0874740000
C          C       0.66687  -0.00001   0.13201  -0.0939850000
C          C       0.60827   0.24999   0.04798  -0.0861010000
C          C       0.58312   0.24996   0.29867  -0.0945060000
C          C       0.89171   0.25002   0.04812  -0.0873980000
C          C       0.91685   0.24995   0.29881  -0.0939530000
C          C       0.85828  -0.00007   0.21486  -0.0878980000
C          C       0.83313  -0.00001   0.13223  -0.0936280000
C          C       0.85746   0.24998   0.20200  -0.0883670000
C          C       0.83223   0.25007   0.28471  -0.0961200000
C          C       0.89256   0.00001   0.03552  -0.0883070000
C          C       0.91779  -0.00003   0.11816  -0.0975000000
H          H       0.70008   0.41739   0.02871   0.1202090000
H          H       0.95020   0.16721   0.19539   0.1201090000
H          H       0.54987   0.33277   0.19543   0.1203700000
H          H       0.79983   0.08277   0.02876   0.1203920000
H          H       0.58267   0.45028   0.11223   0.1196960000
H          H       0.83271   0.20021   0.27889   0.1201010000
H          H       0.66740   0.29980   0.27880   0.1200110000
H          H       0.91753   0.04982   0.11220   0.1205180000
H          H       0.54985   0.41667   0.22125   0.1192860000
H          H       0.79992   0.16651   0.05493   0.1190990000
H          H       0.70020   0.33336   0.05458   0.1186730000
H          H       0.95015   0.08349   0.22156   0.1182700000
H          H       0.66669   0.45017   0.13789   0.1193840000
H          H       0.91660   0.20011   0.30483   0.1192760000
H          H       0.58336   0.29979   0.30451   0.1185630000
H          H       0.83350   0.04985   0.13829   0.1182740000
H          H       0.79989   0.33331   0.05461   0.1188100000
H          H       0.54987   0.08320   0.22133   0.1192670000
H          H       0.95017   0.41667   0.22133   0.1189060000
H          H       0.70021   0.16672   0.05472   0.1187360000
H          H       0.91666   0.29978   0.30468   0.1183790000
H          H       0.66669   0.04983   0.13799   0.1190870000
H          H       0.83333   0.45013   0.13810   0.1195430000
H          H       0.58333   0.20014   0.30463   0.1190580000
H          H       0.95008   0.33259   0.19513   0.1198410000
H          H       0.70005   0.08265   0.02816   0.1197130000
H          H       0.79988   0.41734   0.02890   0.1197440000
H          H       0.55000   0.16731   0.19479   0.1197740000
H          H       0.83264   0.29994   0.27851   0.1197560000
H          H       0.58261   0.05002   0.11164   0.1199240000
H          H       0.91725   0.45009   0.11226   0.1198240000
H          H       0.66738   0.20005   0.27869   0.1201000000
H          H       0.75006   0.38294   0.25342   0.1358870000
H          H       0.75013   0.17608   0.01659   0.1151480000
H          H       0.49980   0.13274   0.08646   0.1352810000
H          H       0.49999   0.42608   0.18311   0.1153270000
H          H       0.50005   0.36719   0.08663   0.1357570000
H          H       0.49993   0.07388   0.18323   0.1153360000
H          H       0.75022   0.11730   0.25317   0.1355320000
H          H       0.75005   0.32390   0.01643   0.1155790000
H          H       0.61710  -0.00012   0.00321   0.1354700000
H          H       0.82400   0.00003   0.09994   0.1150210000
H          H       0.63289   0.25000   0.17006   0.1361410000
H          H       0.92600   0.24993   0.26653   0.1153410000
H          H       0.50005   0.38199   0.33003   0.1351790000
H          H       0.50021   0.17679   0.23343   0.1139900000
H          H       0.74990   0.13196   0.16350   0.1360890000
H          H       0.74995   0.42701   0.06707   0.1146190000
H          H       0.75006   0.36801   0.16329   0.1349730000
H          H       0.74983   0.07322   0.06682   0.1144290000
H          H       0.50028   0.11807   0.33007   0.1355070000
H          H       0.49993   0.32317   0.23363   0.1141260000
H          H       0.63199   0.00000   0.24661   0.1353490000
H          H       0.92702  -0.00007   0.15042   0.1148350000
H          H       0.61798   0.24998   0.07999   0.1353000000
H          H       0.82294   0.25016   0.31694   0.1142810000
H          H       0.88199   0.25002   0.08013   0.1355670000
H          H       0.67702   0.24990   0.31701   0.1143690000
H          H       0.86798  -0.00010   0.24686   0.1359610000
H          H       0.57304   0.00028   0.15020   0.1141690000
H          H       0.86711   0.24992   0.16995   0.1357650000
H          H       0.57395   0.24995   0.26638   0.1156980000
H          H       0.88293   0.00005   0.00349   0.1352930000
H          H       0.67605   0.00001   0.09975   0.1153400000
H          H       0.62690   0.14133   0.32115   0.4207060000
H          H       0.62320   0.10861   0.15453   0.4201710000
H          H       0.85863   0.37691   0.07128   0.4206170000
H          H       0.89148   0.37312   0.23799   0.4205560000
H          H       0.60861   0.12695   0.23788   0.4206370000
H          H       0.64141   0.12301   0.07122   0.4205650000
H          H       0.87683   0.39136   0.15467   0.4205590000
H          H       0.87322   0.35862   0.32128   0.4208970000
H          H       0.85863   0.12373   0.07071   0.4190370000
H          H       0.89129   0.12641   0.23732   0.4190580000
H          H       0.62676   0.35852   0.32129   0.4200050000
H          H       0.62325   0.39139   0.15452   0.4199280000
H          H       0.87654   0.10878   0.15400   0.4204420000
H          H       0.87350   0.14117   0.32021   0.4193210000
H          H       0.60857   0.37322   0.23793   0.4204120000
H          H       0.64144   0.37682   0.07121   0.4199560000
Al         Al      0.15871   0.87478   0.20934   1.6687390000
Al         Al      0.40856   0.62480   0.04257   1.6690690000
Al         Al      0.09131   0.87520   0.04265   1.6669260000
Al         Al      0.34136   0.62517   0.20926   1.6688980000
Al         Al      0.12521   0.90862   0.29269   1.6670280000
Al         Al      0.37519   0.65870   0.12597   1.6676000000
Al         Al      0.12481   0.84132   0.12599   1.6669940000
Al         Al      0.37482   0.59127   0.29259   1.6670760000
Al         Al      0.34141   0.87475   0.20942   1.6692860000
Al         Al      0.09140   0.62476   0.04253   1.6685240000
Al         Al      0.40865   0.87522   0.04263   1.6686270000
Al         Al      0.15864   0.62523   0.20923   1.6681980000
Al         Al      0.37522   0.84137   0.12603   1.6683200000
Al         Al      0.12524   0.59130   0.29249   1.6690010000
Al         Al      0.37483   0.90869   0.29268   1.6694390000
Al         Al      0.12479   0.65865   0.12585   1.6699000000
O          O       0.19089   0.87827   0.25041  -0.5828060000
O          O       0.16886   0.90951   0.30001  -0.5950320000
O          O       0.44086   0.62829   0.08351  -0.5829000000
O          O       0.41888   0.65967   0.13301  -0.5960860000
O          O       0.05910   0.87173   0.08360  -0.5830590000
O          O       0.08113   0.84043   0.13316  -0.5953120000
O          O       0.30913   0.62164   0.25013  -0.5837320000
O          O       0.33110   0.59033   0.29972  -0.5954300000
O          O       0.12170   0.94090   0.00027  -0.5829420000
O          O       0.09039   0.91889   0.04981  -0.5947820000
O          O       0.37165   0.69090   0.16697  -0.5836360000
O          O       0.34033   0.66888   0.21651  -0.5947660000
O          O       0.12830   0.80908   0.16696  -0.5828830000
O          O       0.15958   0.83110   0.21655  -0.5954390000
O          O       0.37831   0.55905   0.00031  -0.5830900000
O          O       0.40950   0.58112   0.04993  -0.5945280000
O          O       0.05903   0.87823   0.00041  -0.5860700000
O          O       0.08128   0.90887   0.28335  -0.6145320000
O          O       0.30901   0.62814   0.16719  -0.5869190000
O          O       0.33127   0.65853   0.11661  -0.6162470000
O          O       0.19095   0.87169   0.16707  -0.5862910000
O          O       0.16879   0.84093   0.11673  -0.6143470000
O          O       0.44096   0.62173   0.00058  -0.5875700000
O          O       0.41876   0.59142   0.28320  -0.6165980000
O          O       0.12832   0.94088   0.25030  -0.5869600000
O          O       0.15928   0.91876   0.20013  -0.6153180000
O          O       0.37810   0.69104   0.08382  -0.5879490000
O          O       0.40832   0.66868   0.03318  -0.6163800000
O          O       0.12175   0.80907   0.08365  -0.5854420000
O          O       0.09092   0.83124   0.03338  -0.6148900000
O          O       0.37196   0.55895   0.25048  -0.5871150000
O          O       0.34169   0.58129   0.19989  -0.6165490000
O          O       0.30912   0.87172   0.16710  -0.5864010000
O          O       0.33126   0.84100   0.11668  -0.6139950000
O          O       0.05920   0.62179   0.00020  -0.5868170000
O          O       0.08128   0.59083   0.28334  -0.6146060000
O          O       0.44090   0.87823   0.00032  -0.5858720000
O          O       0.41879   0.90909   0.28340  -0.6148710000
O          O       0.19090   0.62826   0.16706  -0.5866700000
O          O       0.16873   0.65890   0.11662  -0.6155270000
O          O       0.37829   0.80908   0.08379  -0.5861620000
O          O       0.40881   0.83130   0.03326  -0.6155580000
O          O       0.12817   0.55905   0.25025  -0.5862200000
O          O       0.15890   0.58127   0.19996  -0.6153980000
O          O       0.37176   0.94100   0.25058  -0.5872000000
O          O       0.34146   0.91863   0.19998  -0.6158390000
O          O       0.12186   0.69093   0.08362  -0.5872450000
O          O       0.09119   0.66870   0.03328  -0.6156240000
O          O       0.44086   0.87161   0.08360  -0.5840900000
O          O       0.41887   0.84054   0.13340  -0.5941500000
O          O       0.19097   0.62179   0.25000  -0.5830560000
O          O       0.16896   0.59024   0.29920  -0.5970740000
O          O       0.30910   0.87827   0.25031  -0.5830900000
O          O       0.33113   0.90961   0.29980  -0.5954310000
O          O       0.05906   0.62821   0.08331  -0.5831110000
O          O       0.08107   0.65975   0.13256  -0.5970070000
O          O       0.37163   0.80916   0.16697  -0.5830840000
O          O       0.34053   0.83115   0.21674  -0.5953910000
O          O       0.12172   0.55913   0.00019  -0.5836980000
O          O       0.09050   0.58110   0.04991  -0.5949050000
O          O       0.37832   0.94091   0.00034  -0.5831250000
O          O       0.40964   0.91889   0.04987  -0.5954420000
O          O       0.12828   0.69088   0.16691  -0.5834960000
O          O       0.15956   0.66889   0.21651  -0.5952110000
O          O       0.12820   0.87675   0.25215  -1.0042560000
O          O       0.37816   0.62678   0.08540  -1.0029910000
O          O       0.12183   0.87325   0.08549  -1.0035100000
O          O       0.37181   0.62326   0.25210  -1.0027590000
O          O       0.12323   0.87814   0.00219  -1.0032290000
O          O       0.37326   0.62824   0.16874  -1.0041690000
O          O       0.12679   0.87181   0.16884  -1.0036500000
O          O       0.37669   0.62181   0.00197  -1.0030410000
O          O       0.37322   0.87175   0.16887  -1.0051450000
O          O       0.12331   0.62174   0.00208  -1.0051060000
O          O       0.37676   0.87823   0.00216  -1.0051120000
O          O       0.12671   0.62823   0.16876  -1.0044120000
O          O       0.37822   0.87324   0.08551  -1.0050010000
O          O       0.12819   0.62326   0.25212  -1.0045480000
O          O       0.37188   0.87682   0.25221  -1.0047440000
O          O       0.12182   0.62674   0.08543  -1.0047140000
C          C       0.19182   0.89524   0.28373   0.6305430000
C          C       0.22204   0.89948   0.30587  -0.0598710000
C          C       0.22216   0.91206   0.01385  -0.0735220000
C          C       0.44180   0.64528   0.11681   0.6316710000
C          C       0.47201   0.64940   0.13900  -0.0597760000
C          C       0.47222   0.66190   0.18036  -0.0738140000
C          C       0.05819   0.85473   0.11691   0.6314610000
C          C       0.02798   0.85056   0.13907  -0.0598300000
C          C       0.02784   0.83804   0.18042  -0.0739700000
C          C       0.30820   0.60470   0.28348   0.6317840000
C          C       0.27801   0.60063   0.30568  -0.0602490000
C          C       0.27783   0.58810   0.01370  -0.0737000000
C          C       0.10470   0.94183   0.03359   0.6303780000
C          C       0.10052   0.97204   0.05577  -0.0587270000
C          C       0.08799   0.97227   0.09713  -0.0742770000
C          C       0.35465   0.69181   0.20031   0.6312100000
C          C       0.35052   0.72203   0.22248  -0.0598620000
C          C       0.33799   0.72222   0.26385  -0.0740590000
C          C       0.14529   0.80815   0.20029   0.6313030000
C          C       0.14950   0.77795   0.22249  -0.0603510000
C          C       0.16207   0.77778   0.26383  -0.0735620000
C          C       0.39523   0.55816   0.03370   0.6298460000
C          C       0.39943   0.52798   0.05597  -0.0593450000
C          C       0.41209   0.52782   0.09725  -0.0741950000
C          C       0.05823   0.89472   0.30007   0.6242610000
C          C       0.02802   0.89868   0.27766  -0.0579070000
C          C       0.02787   0.91123   0.23631  -0.0757230000
C          C       0.30819   0.64456   0.13348   0.6262980000
C          C       0.27798   0.64862   0.11118  -0.0576670000
C          C       0.27788   0.66115   0.06984  -0.0753160000
C          C       0.19180   0.85517   0.13341   0.6241420000
C          C       0.22203   0.85130   0.11097  -0.0571500000
C          C       0.22219   0.83876   0.06961  -0.0756360000
C          C       0.44183   0.60537   0.30013   0.6271360000
C          C       0.47208   0.60138   0.27782  -0.0576370000
C          C       0.47219   0.58886   0.23648  -0.0743110000
C          C       0.14494   0.94173   0.21672   0.6254500000
C          C       0.14877   0.97196   0.19431  -0.0567010000
C          C       0.16126   0.97214   0.15294  -0.0764260000
C          C       0.39447   0.69181   0.05003   0.6273480000
C          C       0.39860   0.72202   0.02775  -0.0577760000
C          C       0.41117   0.72213   0.31977  -0.0752880000
C          C       0.10519   0.80823   0.05002   0.6239280000
C          C       0.10127   0.77800   0.02762  -0.0577030000
C          C       0.08876   0.77782   0.31958  -0.0752410000
C          C       0.35554   0.55817   0.21674   0.6268830000
C          C       0.35139   0.52794   0.19451  -0.0577190000
C          C       0.33883   0.52781   0.15320  -0.0744650000
C          C       0.30828   0.85524   0.13340   0.6234420000
C          C       0.27807   0.85134   0.11096  -0.0570310000
C          C       0.27791   0.83878   0.06963  -0.0747230000
C          C       0.05833   0.60519   0.29995   0.6241740000
C          C       0.02810   0.60131   0.27762  -0.0569880000
C          C       0.02789   0.58871   0.23632  -0.0751410000
C          C       0.44178   0.89480   0.30005   0.6237640000
C          C       0.47201   0.89870   0.27767  -0.0574560000
C          C       0.47217   0.91124   0.23632  -0.0756800000
C          C       0.19175   0.64475   0.13339   0.6250960000
C          C       0.22198   0.64868   0.11106  -0.0574180000
C          C       0.22220   0.66122   0.06972  -0.0753140000
C          C       0.39473   0.80825   0.05008   0.6253400000
C          C       0.39873   0.77802   0.02776  -0.0579090000
C          C       0.41126   0.77780   0.31974  -0.0747670000
C          C       0.14471   0.55822   0.21662   0.6250550000
C          C       0.14869   0.52799   0.19428  -0.0570780000
C          C       0.16124   0.52783   0.15295  -0.0764600000
C          C       0.35536   0.94174   0.21682   0.6263820000
C          C       0.35129   0.97194   0.19447  -0.0575820000
C          C       0.33875   0.97212   0.15312  -0.0760130000
C          C       0.10533   0.69175   0.04998   0.6260620000
C          C       0.10131   0.72198   0.02764  -0.0582140000
C          C       0.08876   0.72213   0.31963  -0.0755550000
C          C       0.44182   0.85472   0.11701   0.6310040000
C          C       0.47206   0.85051   0.13903  -0.0601900000
C          C       0.47216   0.83795   0.18033  -0.0737260000
C          C       0.19190   0.60467   0.28315   0.6329550000
C          C       0.22207   0.60053   0.30539  -0.0607660000
C          C       0.22215   0.58801   0.01339  -0.0735770000
C          C       0.30818   0.89530   0.28361   0.6310300000
C          C       0.27800   0.89949   0.30587  -0.0597040000
C          C       0.27785   0.91203   0.01389  -0.0729360000
C          C       0.05813   0.64533   0.11648   0.6329320000
C          C       0.02795   0.64946   0.13868  -0.0606730000
C          C       0.02791   0.66197   0.18002  -0.0740050000
C          C       0.35476   0.80821   0.20038   0.6311600000
C          C       0.35057   0.77796   0.22240  -0.0607590000
C          C       0.33798   0.77786   0.26371  -0.0730990000
C          C       0.10472   0.55817   0.03349   0.6313620000
C          C       0.10047   0.52796   0.05554  -0.0607970000
C          C       0.08793   0.52793   0.09686  -0.0733640000
C          C       0.39533   0.94184   0.03363   0.6309180000
C          C       0.39951   0.97202   0.05587  -0.0609550000
C          C       0.41202   0.97213   0.09723  -0.0722980000
C          C       0.14525   0.69183   0.20025   0.6309830000
C          C       0.14947   0.72201   0.22246  -0.0599930000
C          C       0.16205   0.72211   0.26379  -0.0736190000
C          C       0.25002   0.89259   0.28545  -0.0895430000
C          C       0.24999   0.91778   0.03481  -0.0971000000
C          C      -0.00007   0.64246   0.11844  -0.0882020000
C          C       0.00012   0.66761   0.20115  -0.0951230000
C          C       0.00002   0.85748   0.11862  -0.0887520000
C          C      -0.00002   0.83231   0.20133  -0.0955240000
C          C       0.25009   0.60755   0.28514  -0.0882920000
C          C       0.24993   0.58239   0.03453  -0.0955350000
C          C       0.10742   0.49996   0.03523  -0.0890540000
C          C       0.08226   0.50016   0.11794  -0.0953010000
C          C       0.14256   0.74999   0.20208  -0.0892490000
C          C       0.16777   0.74994   0.28476  -0.0962070000
C          C       0.00002   0.89171   0.29803  -0.0862680000
C          C       0.00002   0.91690   0.21539  -0.0936720000
C          C       0.24995   0.64168   0.13151  -0.0877010000
C          C       0.25007   0.66686   0.04884  -0.0934630000
C          C       0.25005   0.85830   0.13130  -0.0873230000
C          C       0.25005   0.83312   0.04869  -0.0944820000
C          C       0.00014   0.60834   0.29808  -0.0880500000
C          C      -0.00001   0.58313   0.21546  -0.0941470000
C          C       0.14173   0.49998   0.21463  -0.0874740000
C          C       0.16686   0.49999   0.13201  -0.0939850000
C          C       0.10826   0.75000   0.04798  -0.0861010000
C          C       0.08312   0.74996   0.29867  -0.0945060000
C          C       0.39170   0.75003   0.04812  -0.0873980000
C          C       0.41685   0.74995   0.29881  -0.0939530000
C          C       0.35829   0.49993   0.21486  -0.0878980000
C          C       0.33313   0.49999   0.13223  -0.0936280000
C          C       0.35746   0.74998   0.20200  -0.0883670000
C          C       0.33224   0.75008   0.28471  -0.0961200000
C          C       0.39256   0.50001   0.03552  -0.0883070000
C          C       0.41778   0.49996   0.11816  -0.0975000000
H          H       0.20008   0.91739   0.02871   0.1202090000
H          H       0.45020   0.66721   0.19539   0.1201090000
H          H       0.04987   0.83277   0.19543   0.1203700000
H          H       0.29984   0.58277   0.02876   0.1203920000
H          H       0.08267   0.95029   0.11223   0.1196960000
H          H       0.33271   0.70021   0.27889   0.1201010000
H          H       0.16740   0.79980   0.27880   0.1200110000
H          H       0.41753   0.54983   0.11220   0.1205180000
H          H       0.04985   0.91666   0.22125   0.1192860000
H          H       0.29992   0.66651   0.05493   0.1190990000
H          H       0.20019   0.83336   0.05458   0.1186730000
H          H       0.45015   0.58349   0.22156   0.1182700000
H          H       0.16668   0.95017   0.13789   0.1193840000
H          H       0.41659   0.70011   0.30483   0.1192760000
H          H       0.08336   0.79979   0.30451   0.1185630000
H          H       0.33350   0.54985   0.13829   0.1182740000
H          H       0.29989   0.83331   0.05461   0.1188100000
H          H       0.04987   0.58320   0.22133   0.1192670000
H          H       0.45017   0.91666   0.22133   0.1189060000
H          H       0.20021   0.66672   0.05472   0.1187360000
H          H       0.41665   0.79978   0.30468   0.1183790000
H          H       0.16669   0.54983   0.13799   0.1190870000
H          H       0.33333   0.95013   0.13810   0.1195430000
H          H       0.08333   0.70014   0.30463   0.1190580000
H          H       0.45008   0.83259   0.19513   0.1198410000
H          H       0.20005   0.58265   0.02816   0.1197130000
H          H       0.29988   0.91734   0.02890   0.1197440000
H          H       0.05000   0.66731   0.19479   0.1197740000
H          H       0.33264   0.79994   0.27851   0.1197560000
H          H       0.08261   0.55002   0.11164   0.1199240000
H          H       0.41724   0.95010   0.11226   0.1198240000
H          H       0.16737   0.70005   0.27869   0.1201000000
H          H       0.25006   0.88294   0.25342   0.1358870000
H          H       0.25013   0.67607   0.01659   0.1151480000
H          H      -0.00020   0.63274   0.08646   0.1352810000
H          H      -0.00001   0.92608   0.18311   0.1153270000
H          H       0.00005   0.86719   0.08663   0.1357570000
H          H      -0.00008   0.57388   0.18323   0.1153360000
H          H       0.25022   0.61730   0.25317   0.1355320000
H          H       0.25005   0.82390   0.01643   0.1155790000
H          H       0.11710   0.49988   0.00321   0.1354700000
H          H       0.32399   0.50004   0.09994   0.1150210000
H          H       0.13288   0.75000   0.17006   0.1361410000
H          H       0.42601   0.74993   0.26653   0.1153410000
H          H       0.00005   0.88199   0.33003   0.1351790000
H          H       0.00021   0.67679   0.23343   0.1139900000
H          H       0.24990   0.63196   0.16350   0.1360890000
H          H       0.24995   0.92701   0.06707   0.1146190000
H          H       0.25006   0.86801   0.16329   0.1349730000
H          H       0.24983   0.57322   0.06682   0.1144290000
H          H       0.00028   0.61806   0.33007   0.1355070000
H          H      -0.00007   0.82317   0.23363   0.1141260000
H          H       0.13198   0.50000   0.24661   0.1353490000
H          H       0.42702   0.49993   0.15042   0.1148350000
H          H       0.11798   0.74998   0.07999   0.1353000000
H          H       0.32294   0.75016   0.31694   0.1142810000
H          H       0.38199   0.75003   0.08013   0.1355670000
H          H       0.17702   0.74990   0.31701   0.1143690000
H          H       0.36798   0.49990   0.24686   0.1359610000
H          H       0.07304   0.50028   0.15020   0.1141690000
H          H       0.36711   0.74992   0.16995   0.1357650000
H          H       0.07395   0.74994   0.26638   0.1156980000
H          H       0.38293   0.50004   0.00349   0.1352930000
H          H       0.17605   0.50001   0.09975   0.1153400000
H          H       0.12690   0.64133   0.32115   0.4207060000
H          H       0.12320   0.60861   0.15453   0.4201710000
H          H       0.35864   0.87691   0.07128   0.4206170000
H          H       0.39147   0.87312   0.23799   0.4205560000
H          H       0.10860   0.62694   0.23788   0.4206370000
H          H       0.14142   0.62301   0.07122   0.4205650000
H          H       0.37682   0.89136   0.15467   0.4205590000
H          H       0.37322   0.85862   0.32128   0.4208970000
H          H       0.35863   0.62372   0.07071   0.4190370000
H          H       0.39129   0.62642   0.23732   0.4190580000
H          H       0.12676   0.85852   0.32129   0.4200050000
H          H       0.12325   0.89139   0.15452   0.4199280000
H          H       0.37654   0.60878   0.15400   0.4204420000
H          H       0.37350   0.64116   0.32021   0.4193210000
H          H       0.10857   0.87322   0.23793   0.4204120000
H          H       0.14144   0.87682   0.07121   0.4199560000
Al         Al      0.65871   0.87478   0.20934   1.6687390000
Al         Al      0.90856   0.62480   0.04257   1.6690690000
Al         Al      0.59131   0.87520   0.04265   1.6669260000
Al         Al      0.84136   0.62517   0.20926   1.6688980000
Al         Al      0.62521   0.90862   0.29269   1.6670280000
Al         Al      0.87519   0.65870   0.12597   1.6676000000
Al         Al      0.62481   0.84132   0.12599   1.6669940000
Al         Al      0.87482   0.59127   0.29259   1.6670760000
Al         Al      0.84141   0.87475   0.20942   1.6692860000
Al         Al      0.59140   0.62476   0.04253   1.6685240000
Al         Al      0.90865   0.87522   0.04263   1.6686270000
Al         Al      0.65864   0.62523   0.20923   1.6681980000
Al         Al      0.87522   0.84137   0.12603   1.6683200000
Al         Al      0.62523   0.59130   0.29249   1.6690010000
Al         Al      0.87483   0.90869   0.29268   1.6694390000
Al         Al      0.62479   0.65865   0.12585   1.6699000000
O          O       0.69089   0.87827   0.25041  -0.5828060000
O          O       0.66886   0.90951   0.30001  -0.5950320000
O          O       0.94086   0.62829   0.08351  -0.5829000000
O          O       0.91889   0.65967   0.13301  -0.5960860000
O          O       0.55910   0.87173   0.08360  -0.5830590000
O          O       0.58113   0.84043   0.13316  -0.5953120000
O          O       0.80914   0.62164   0.25013  -0.5837320000
O          O       0.83110   0.59033   0.29972  -0.5954300000
O          O       0.62170   0.94090   0.00027  -0.5829420000
O          O       0.59039   0.91889   0.04981  -0.5947820000
O          O       0.87165   0.69090   0.16697  -0.5836360000
O          O       0.84034   0.66888   0.21651  -0.5947660000
O          O       0.62831   0.80908   0.16696  -0.5828830000
O          O       0.65958   0.83110   0.21655  -0.5954390000
O          O       0.87832   0.55905   0.00031  -0.5830900000
O          O       0.90951   0.58112   0.04993  -0.5945280000
O          O       0.55904   0.87823   0.00041  -0.5860700000
O          O       0.58128   0.90887   0.28335  -0.6145320000
O          O       0.80901   0.62814   0.16719  -0.5869190000
O          O       0.83127   0.65853   0.11661  -0.6162470000
O          O       0.69095   0.87169   0.16707  -0.5862910000
O          O       0.66879   0.84093   0.11673  -0.6143470000
O          O       0.94096   0.62173   0.00058  -0.5875700000
O          O       0.91876   0.59142   0.28320  -0.6165980000
O          O       0.62832   0.94088   0.25030  -0.5869600000
O          O       0.65928   0.91876   0.20013  -0.6153180000
O          O       0.87810   0.69104   0.08382  -0.5879490000
O          O       0.90832   0.66868   0.03318  -0.6163800000
O          O       0.62175   0.80907   0.08365  -0.5854420000
O          O       0.59092   0.83124   0.03338  -0.6148900000
O          O       0.87196   0.55895   0.25048  -0.5871150000
O          O       0.84169   0.58129   0.19989  -0.6165490000
O          O       0.80912   0.87172   0.16710  -0.5864010000
O          O       0.83127   0.84100   0.11668  -0.6139950000
O          O       0.55919   0.62179   0.00020  -0.5868170000
O          O       0.58129   0.59083   0.28334  -0.6146060000
O          O       0.94091   0.87823   0.00032  -0.5858720000
O          O       0.91879   0.90909   0.28340  -0.6148710000
O          O       0.69090   0.62826   0.16706  -0.5866700000
O          O       0.66873   0.65890   0.11662  -0.6155270000
O          O       0.87830   0.80908   0.08379  -0.5861620000
O          O       0.90881   0.83130   0.03326  -0.6155580000
O          O       0.62817   0.55905   0.25025  -0.5862200000
O          O       0.65890   0.58127   0.19996  -0.6153980000
O          O       0.87176   0.94100   0.25058  -0.5872000000
O          O       0.84145   0.91863   0.19998  -0.6158390000
O          O       0.62186   0.69093   0.08362  -0.5872450000
O          O       0.59120   0.66870   0.03328  -0.6156240000
O          O       0.94086   0.87161   0.08360  -0.5840900000
O          O       0.91887   0.84054   0.13340  -0.5941500000
O          O       0.69097   0.62179   0.25000  -0.5830560000
O          O       0.66895   0.59024   0.29920  -0.5970740000
O          O       0.80910   0.87827   0.25031  -0.5830900000
O          O       0.83113   0.90961   0.29980  -0.5954310000
O          O       0.55906   0.62821   0.08331  -0.5831110000
O          O       0.58108   0.65975   0.13256  -0.5970070000
O          O       0.87163   0.80916   0.16697  -0.5830840000
O          O       0.84054   0.83115   0.21674  -0.5953910000
O          O       0.62172   0.55913   0.00019  -0.5836980000
O          O       0.59051   0.58110   0.04991  -0.5949050000
O          O       0.87832   0.94091   0.00034  -0.5831250000
O          O       0.90963   0.91889   0.04987  -0.5954420000
O          O       0.62828   0.69088   0.16691  -0.5834960000
O          O       0.65956   0.66889   0.21651  -0.5952110000
O          O       0.62820   0.87675   0.25215  -1.0042560000
O          O       0.87816   0.62678   0.08540  -1.0029910000
O          O       0.62184   0.87325   0.08549  -1.0035100000
O          O       0.87181   0.62326   0.25210  -1.0027590000
O          O       0.62323   0.87814   0.00219  -1.0032290000
O          O       0.87326   0.62824   0.16874  -1.0041690000
O          O       0.62679   0.87181   0.16884  -1.0036500000
O          O       0.87669   0.62181   0.00197  -1.0030410000
O          O       0.87322   0.87175   0.16887  -1.0051450000
O          O       0.62331   0.62174   0.00208  -1.0051060000
O          O       0.87676   0.87823   0.00216  -1.0051120000
O          O       0.62671   0.62823   0.16876  -1.0044120000
O          O       0.87823   0.87324   0.08551  -1.0050010000
O          O       0.62819   0.62326   0.25212  -1.0045480000
O          O       0.87188   0.87682   0.25221  -1.0047440000
O          O       0.62183   0.62674   0.08543  -1.0047140000
C          C       0.69182   0.89524   0.28373   0.6305430000
C          C       0.72204   0.89948   0.30587  -0.0598710000
C          C       0.72215   0.91206   0.01385  -0.0735220000
C          C       0.94181   0.64528   0.11681   0.6316710000
C          C       0.97201   0.64940   0.13900  -0.0597760000
C          C       0.97222   0.66190   0.18036  -0.0738140000
C          C       0.55819   0.85473   0.11691   0.6314610000
C          C       0.52799   0.85056   0.13907  -0.0598300000
C          C       0.52784   0.83804   0.18042  -0.0739700000
C          C       0.80820   0.60470   0.28348   0.6317840000
C          C       0.77800   0.60063   0.30568  -0.0602490000
C          C       0.77783   0.58810   0.01370  -0.0737000000
C          C       0.60470   0.94183   0.03359   0.6303780000
C          C       0.60052   0.97204   0.05577  -0.0587270000
C          C       0.58799   0.97227   0.09713  -0.0742770000
C          C       0.85465   0.69181   0.20031   0.6312100000
C          C       0.85052   0.72203   0.22248  -0.0598620000
C          C       0.83799   0.72222   0.26385  -0.0740590000
C          C       0.64529   0.80815   0.20029   0.6313030000
C          C       0.64950   0.77795   0.22249  -0.0603510000
C          C       0.66207   0.77778   0.26383  -0.0735620000
C          C       0.89523   0.55816   0.03370   0.6298460000
C          C       0.89943   0.52798   0.05597  -0.0593450000
C          C       0.91209   0.52782   0.09725  -0.0741950000
C          C       0.55823   0.89472   0.30007   0.6242610000
C          C       0.52802   0.89868   0.27766  -0.0579070000
C          C       0.52787   0.91123   0.23631  -0.0757230000
C          C       0.80819   0.64456   0.13348   0.6262980000
C          C       0.77798   0.64862   0.11118  -0.0576670000
C          C       0.77788   0.66115   0.06984  -0.0753160000
C          C       0.69180   0.85517   0.13341   0.6241420000
C          C       0.72203   0.85130   0.11097  -0.0571500000
C          C       0.72219   0.83876   0.06961  -0.0756360000
C          C       0.94183   0.60537   0.30013   0.6271360000
C          C       0.97208   0.60138   0.27782  -0.0576370000
C          C       0.97219   0.58886   0.23648  -0.0743110000
C          C       0.64494   0.94173   0.21672   0.6254500000
C          C       0.64877   0.97196   0.19431  -0.0567010000
C          C       0.66126   0.97214   0.15294  -0.0764260000
C          C       0.89447   0.69181   0.05003   0.6273480000
C          C       0.89860   0.72202   0.02775  -0.0577760000
C          C       0.91118   0.72213   0.31977  -0.0752880000
C          C       0.60519   0.80823   0.05002   0.6239280000
C          C       0.60127   0.77800   0.02762  -0.0577030000
C          C       0.58876   0.77782   0.31958  -0.0752410000
C          C       0.85554   0.55817   0.21674   0.6268830000
C          C       0.85139   0.52794   0.19451  -0.0577190000
C          C       0.83883   0.52781   0.15320  -0.0744650000
C          C       0.80828   0.85524   0.13340   0.6234420000
C          C       0.77807   0.85134   0.11096  -0.0570310000
C          C       0.77791   0.83878   0.06963  -0.0747230000
C          C       0.55833   0.60519   0.29995   0.6241740000
C          C       0.52810   0.60131   0.27762  -0.0569880000
C          C       0.52789   0.58871   0.23632  -0.0751410000
C          C       0.94178   0.89480   0.30005   0.6237640000
C          C       0.97201   0.89870   0.27767  -0.0574560000
C          C       0.97217   0.91124   0.23632  -0.0756800000
C          C       0.69175   0.64475   0.13339   0.6250960000
C          C       0.72198   0.64868   0.11106  -0.0574180000
C          C       0.72220   0.66122   0.06972  -0.0753140000
C          C       0.89473   0.80825   0.05008   0.6253400000
C          C       0.89874   0.77802   0.02776  -0.0579090000
C          C       0.91126   0.77780   0.31974  -0.0747670000
C          C       0.64470   0.55822   0.21662   0.6250550000
C          C       0.64869   0.52799   0.19428  -0.0570780000
C          C       0.66124   0.52783   0.15295  -0.0764600000
C          C       0.85536   0.94174   0.21682   0.6263820000
C          C       0.85129   0.97194   0.19447  -0.0575820000
C          C       0.83875   0.97212   0.15312  -0.0760130000
C          C       0.60533   0.69175   0.04998   0.6260620000
C          C       0.60131   0.72198   0.02764  -0.0582140000
C          C       0.58876   0.72213   0.31963  -0.0755550000
C          C       0.94182   0.85472   0.11701   0.6310040000
C          C       0.97206   0.85051   0.13903  -0.0601900000
C          C       0.97216   0.83795   0.18033  -0.0737260000
C          C       0.69190   0.60467   0.28315   0.6329550000
C          C       0.72207   0.60053   0.30539  -0.0607660000
C          C       0.72215   0.58801   0.01339  -0.0735770000
C          C       0.80818   0.89530   0.28361   0.6310300000
C          C       0.77799   0.89949   0.30587  -0.0597040000
C          C       0.77785   0.91203   0.01389  -0.0729360000
C          C       0.55814   0.64533   0.11648   0.6329320000
C          C       0.52795   0.64946   0.13868  -0.0606730000
C          C       0.52791   0.66197   0.18002  -0.0740050000
C          C       0.85476   0.80821   0.20038   0.6311600000
C          C       0.85056   0.77796   0.22240  -0.0607590000
C          C       0.83798   0.77786   0.26371  -0.0730990000
C          C       0.60472   0.55817   0.03349   0.6313620000
C          C       0.60047   0.52796   0.05554  -0.0607970000
C          C       0.58793   0.52793   0.09686  -0.0733640000
C          C       0.89533   0.94184   0.03363   0.6309180000
C          C       0.89951   0.97202   0.05587  -0.0609550000
C          C       0.91202   0.97213   0.09723  -0.0722980000
C          C       0.64526   0.69183   0.20025   0.6309830000
C          C       0.64947   0.72201   0.22246  -0.0599930000
C          C       0.66205   0.72211   0.26379  -0.0736190000
C          C       0.75002   0.89259   0.28545  -0.0895430000
C          C       0.74999   0.91778   0.03481  -0.0971000000
C          C       0.49993   0.64246   0.11844  -0.0882020000
C          C       0.50013   0.66761   0.20115  -0.0951230000
C          C       0.50003   0.85748   0.11862  -0.0887520000
C          C       0.49999   0.83231   0.20133  -0.0955240000
C          C       0.75009   0.60755   0.28514  -0.0882920000
C          C       0.74994   0.58239   0.03453  -0.0955350000
C          C       0.60742   0.49996   0.03523  -0.0890540000
C          C       0.58226   0.50016   0.11794  -0.0953010000
C          C       0.64256   0.74999   0.20208  -0.0892490000
C          C       0.66777   0.74994   0.28476  -0.0962070000
C          C       0.50001   0.89171   0.29803  -0.0862680000
C          C       0.50002   0.91690   0.21539  -0.0936720000
C          C       0.74995   0.64168   0.13151  -0.0877010000
C          C       0.75007   0.66686   0.04884  -0.0934630000
C          C       0.75004   0.85830   0.13130  -0.0873230000
C          C       0.75006   0.83312   0.04869  -0.0944820000
C          C       0.50014   0.60834   0.29808  -0.0880500000
C          C       0.49999   0.58313   0.21546  -0.0941470000
C          C       0.64173   0.49998   0.21463  -0.0874740000
C          C       0.66687   0.49999   0.13201  -0.0939850000
C          C       0.60827   0.75000   0.04798  -0.0861010000
C          C       0.58312   0.74996   0.29867  -0.0945060000
C          C       0.89171   0.75003   0.04812  -0.0873980000
C          C       0.91685   0.74995   0.29881  -0.0939530000
C          C       0.85828   0.49993   0.21486  -0.0878980000
C          C       0.83313   0.49999   0.13223  -0.0936280000
C          C       0.85746   0.74998   0.20200  -0.0883670000
C          C       0.83223   0.75008   0.28471  -0.0961200000
C          C       0.89256   0.50001   0.03552  -0.0883070000
C          C       0.91779   0.49996   0.11816  -0.0975000000
H          H       0.70008   0.91739   0.02871   0.1202090000
H          H       0.95020   0.66721   0.19539   0.1201090000
H          H       0.54987   0.83277   0.19543   0.1203700000
H          H       0.79983   0.58277   0.02876   0.1203920000
H          H       0.58266   0.95029   0.11223   0.1196960000
H          H       0.83271   0.70021   0.27889   0.1201010000
H          H       0.66740   0.79980   0.27880   0.1200110000
H          H       0.91753   0.54983   0.11220   0.1205180000
H          H       0.54984   0.91666   0.22125   0.1192860000
H          H       0.79992   0.66651   0.05493   0.1190990000
H          H       0.70020   0.83336   0.05458   0.1186730000
H          H       0.95015   0.58349   0.22156   0.1182700000
H          H       0.66668   0.95017   0.13789   0.1193840000
H          H       0.91660   0.70011   0.30483   0.1192760000
H          H       0.58336   0.79979   0.30451   0.1185630000
H          H       0.83350   0.54985   0.13829   0.1182740000
H          H       0.79989   0.83331   0.05461   0.1188100000
H          H       0.54987   0.58320   0.22133   0.1192670000
H          H       0.95017   0.91666   0.22133   0.1189060000
H          H       0.70021   0.66672   0.05472   0.1187360000
H          H       0.91666   0.79978   0.30468   0.1183790000
H          H       0.66669   0.54983   0.13799   0.1190870000
H          H       0.83333   0.95013   0.13810   0.1195430000
H          H       0.58333   0.70014   0.30463   0.1190580000
H          H       0.95008   0.83259   0.19513   0.1198410000
H          H       0.70005   0.58265   0.02816   0.1197130000
H          H       0.79987   0.91734   0.02890   0.1197440000
H          H       0.55000   0.66731   0.19479   0.1197740000
H          H       0.83264   0.79994   0.27851   0.1197560000
H          H       0.58261   0.55002   0.11164   0.1199240000
H          H       0.91724   0.95010   0.11226   0.1198240000
H          H       0.66738   0.70005   0.27869   0.1201000000
H          H       0.75006   0.88294   0.25342   0.1358870000
H          H       0.75013   0.67607   0.01659   0.1151480000
H          H       0.49979   0.63274   0.08646   0.1352810000
H          H       0.49999   0.92608   0.18311   0.1153270000
H          H       0.50005   0.86719   0.08663   0.1357570000
H          H       0.49992   0.57388   0.18323   0.1153360000
H          H       0.75022   0.61730   0.25317   0.1355320000
H          H       0.75005   0.82390   0.01643   0.1155790000
H          H       0.61710   0.49988   0.00321   0.1354700000
H          H       0.82400   0.50004   0.09994   0.1150210000
H          H       0.63289   0.75000   0.17006   0.1361410000
H          H       0.92600   0.74993   0.26653   0.1153410000
H          H       0.50005   0.88199   0.33003   0.1351790000
H          H       0.50021   0.67679   0.23343   0.1139900000
H          H       0.74990   0.63196   0.16350   0.1360890000
H          H       0.74994   0.92701   0.06707   0.1146190000
H          H       0.75006   0.86801   0.16329   0.1349730000
H          H       0.74983   0.57322   0.06682   0.1144290000
H          H       0.50028   0.61806   0.33007   0.1355070000
H          H       0.49992   0.82317   0.23363   0.1141260000
H          H       0.63199   0.50000   0.24661   0.1353490000
H          H       0.92702   0.49993   0.15042   0.1148350000
H          H       0.61798   0.74998   0.07999   0.1353000000
H          H       0.82294   0.75016   0.31694   0.1142810000
H          H       0.88199   0.75003   0.08013   0.1355670000
H          H       0.67702   0.74990   0.31701   0.1143690000
H          H       0.86798   0.49990   0.24686   0.1359610000
H          H       0.57304   0.50028   0.15020   0.1141690000
H          H       0.86711   0.74992   0.16995   0.1357650000
H          H       0.57395   0.74994   0.26638   0.1156980000
H          H       0.88293   0.50004   0.00349   0.1352930000
H          H       0.67605   0.50001   0.09975   0.1153400000
H          H       0.62690   0.64133   0.32115   0.4207060000
H          H       0.62320   0.60861   0.15453   0.4201710000
H          H       0.85863   0.87691   0.07128   0.4206170000
H          H       0.89148   0.87312   0.23799   0.4205560000
H          H       0.60861   0.62694   0.23788   0.4206370000
H          H       0.64141   0.62301   0.07122   0.4205650000
H          H       0.87683   0.89136   0.15467   0.4205590000
H          H       0.87322   0.85862   0.32128   0.4208970000
H          H       0.85863   0.62372   0.07071   0.4190370000
H          H       0.89129   0.62642   0.23732   0.4190580000
H          H       0.62676   0.85852   0.32129   0.4200050000
H          H       0.62325   0.89139   0.15452   0.4199280000
H          H       0.87654   0.60878   0.15400   0.4204420000
H          H       0.87350   0.64116   0.32021   0.4193210000
H          H       0.60857   0.87322   0.23793   0.4204120000
H          H       0.64144   0.87682   0.07121   0.4199560000
Al         Al      0.15871   0.37478   0.54268   1.6687390000
Al         Al      0.40856   0.12480   0.37590   1.6690690000
Al         Al      0.09131   0.37520   0.37599   1.6669260000
Al         Al      0.34136   0.12518   0.54260   1.6688980000
Al         Al      0.12521   0.40862   0.62602   1.6670280000
Al         Al      0.37519   0.15870   0.45930   1.6676000000
Al         Al      0.12481   0.34132   0.45932   1.6669940000
Al         Al      0.37482   0.09127   0.62593   1.6670760000
Al         Al      0.34141   0.37475   0.54276   1.6692860000
Al         Al      0.09140   0.12476   0.37587   1.6685240000
Al         Al      0.40866   0.37522   0.37597   1.6686270000
Al         Al      0.15864   0.12524   0.54256   1.6681980000
Al         Al      0.37522   0.34137   0.45936   1.6683200000
Al         Al      0.12524   0.09130   0.62582   1.6690010000
Al         Al      0.37483   0.40869   0.62601   1.6694390000
Al         Al      0.12480   0.15865   0.45918   1.6699000000
O          O       0.19088   0.37827   0.58374  -0.5828060000
O          O       0.16886   0.40951   0.63334  -0.5950320000
O          O       0.44086   0.12829   0.41684  -0.5829000000
O          O       0.41889   0.15966   0.46634  -0.5960860000
O          O       0.05910   0.37173   0.41694  -0.5830590000
O          O       0.08113   0.34042   0.46649  -0.5953120000
O          O       0.30913   0.12164   0.58346  -0.5837320000
O          O       0.33110   0.09033   0.63305  -0.5954300000
O          O       0.12170   0.44090   0.33360  -0.5829420000
O          O       0.09039   0.41890   0.38315  -0.5947820000
O          O       0.37165   0.19090   0.50030  -0.5836360000
O          O       0.34033   0.16888   0.54984  -0.5947660000
O          O       0.12830   0.30908   0.50030  -0.5828830000
O          O       0.15958   0.33110   0.54988  -0.5954390000
O          O       0.37832   0.05905   0.33364  -0.5830900000
O          O       0.40951   0.08112   0.38326  -0.5945280000
O          O       0.05903   0.37823   0.33374  -0.5860700000
O          O       0.08128   0.40887   0.61668  -0.6145320000
O          O       0.30901   0.12814   0.50052  -0.5869190000
O          O       0.33127   0.15854   0.44995  -0.6162470000
O          O       0.19095   0.37169   0.50041  -0.5862910000
O          O       0.16879   0.34093   0.45006  -0.6143470000
O          O       0.44096   0.12173   0.33392  -0.5875700000
O          O       0.41876   0.09141   0.61654  -0.6165980000
O          O       0.12832   0.44088   0.58364  -0.5869600000
O          O       0.15928   0.41876   0.53346  -0.6153180000
O          O       0.37810   0.19104   0.41716  -0.5879490000
O          O       0.40832   0.16868   0.36651  -0.6163800000
O          O       0.12175   0.30907   0.41698  -0.5854420000
O          O       0.09092   0.33124   0.36671  -0.6148900000
O          O       0.37196   0.05895   0.58382  -0.5871150000
O          O       0.34169   0.08129   0.53322  -0.6165490000
O          O       0.30912   0.37172   0.50043  -0.5864010000
O          O       0.33127   0.34099   0.45001  -0.6139950000
O          O       0.05919   0.12179   0.33353  -0.5868170000
O          O       0.08128   0.09083   0.61667  -0.6146060000
O          O       0.44090   0.37822   0.33365  -0.5858720000
O          O       0.41879   0.40909   0.61673  -0.6148710000
O          O       0.19089   0.12826   0.50040  -0.5866700000
O          O       0.16873   0.15890   0.44996  -0.6155270000
O          O       0.37830   0.30908   0.41713  -0.5861620000
O          O       0.40881   0.33130   0.36659  -0.6155580000
O          O       0.12817   0.05904   0.58358  -0.5862200000
O          O       0.15890   0.08126   0.53329  -0.6153980000
O          O       0.37176   0.44100   0.58391  -0.5872000000
O          O       0.34146   0.41863   0.53332  -0.6158390000
O          O       0.12186   0.19093   0.41696  -0.5872450000
O          O       0.09119   0.16870   0.36661  -0.6156240000
O          O       0.44087   0.37161   0.41693  -0.5840900000
O          O       0.41887   0.34053   0.46673  -0.5941500000
O          O       0.19097   0.12179   0.58333  -0.5830560000
O          O       0.16896   0.09023   0.63253  -0.5970740000
O          O       0.30910   0.37827   0.58364  -0.5830900000
O          O       0.33113   0.40961   0.63314  -0.5954310000
O          O       0.05906   0.12821   0.41664  -0.5831110000
O          O       0.08107   0.15974   0.46589  -0.5970070000
O          O       0.37163   0.30916   0.50030  -0.5830840000
O          O       0.34053   0.33115   0.55008  -0.5953910000
O          O       0.12172   0.05913   0.33352  -0.5836980000
O          O       0.09050   0.08110   0.38324  -0.5949050000
O          O       0.37832   0.44092   0.33367  -0.5831250000
O          O       0.40964   0.41889   0.38320  -0.5954420000
O          O       0.12828   0.19088   0.50025  -0.5834960000
O          O       0.15956   0.16889   0.54985  -0.5952110000
O          O       0.12820   0.37675   0.58549  -1.0042560000
O          O       0.37816   0.12678   0.41873  -1.0029910000
O          O       0.12183   0.37325   0.41882  -1.0035100000
O          O       0.37181   0.12326   0.58543  -1.0027590000
O          O       0.12323   0.37814   0.33553  -1.0032290000
O          O       0.37326   0.12824   0.50208  -1.0041690000
O          O       0.12679   0.37181   0.50217  -1.0036500000
O          O       0.37669   0.12180   0.33530  -1.0030410000
O          O       0.37322   0.37175   0.50220  -1.0051450000
O          O       0.12331   0.12174   0.33541  -1.0051060000
O          O       0.37677   0.37823   0.33550  -1.0051120000
O          O       0.12671   0.12823   0.50210  -1.0044120000
O          O       0.37822   0.37324   0.41885  -1.0050010000
O          O       0.12819   0.12326   0.58545  -1.0045480000
O          O       0.37188   0.37681   0.58554  -1.0047440000
O          O       0.12182   0.12674   0.41876  -1.0047140000
C          C       0.19182   0.39524   0.61706   0.6305430000
C          C       0.22204   0.39948   0.63920  -0.0598710000
C          C       0.22215   0.41206   0.34719  -0.0735220000
C          C       0.44181   0.14528   0.45015   0.6316710000
C          C       0.47201   0.14939   0.47233  -0.0597760000
C          C       0.47222   0.16190   0.51369  -0.0738140000
C          C       0.05819   0.35474   0.45024   0.6314610000
C          C       0.02798   0.35056   0.47240  -0.0598300000
C          C       0.02784   0.33804   0.51376  -0.0739700000
C          C       0.30820   0.10470   0.61681   0.6317840000
C          C       0.27800   0.10063   0.63902  -0.0602490000
C          C       0.27783   0.08811   0.34704  -0.0737000000
C          C       0.10471   0.44183   0.36693   0.6303780000
C          C       0.10052   0.47204   0.38910  -0.0587270000
C          C       0.08799   0.47227   0.43047  -0.0742770000
C          C       0.35465   0.19181   0.53364   0.6312100000
C          C       0.35052   0.22203   0.55581  -0.0598620000
C          C       0.33799   0.22222   0.59718  -0.0740590000
C          C       0.14529   0.30816   0.53363   0.6313030000
C          C       0.14950   0.27795   0.55583  -0.0603510000
C          C       0.16207   0.27778   0.59716  -0.0735620000
C          C       0.39523   0.05815   0.36704   0.6298460000
C          C       0.39943   0.02798   0.38930  -0.0593450000
C          C       0.41209   0.02782   0.43058  -0.0741950000
C          C       0.05823   0.39472   0.63340   0.6242610000
C          C       0.02802   0.39869   0.61100  -0.0579070000
C          C       0.02787   0.41123   0.56965  -0.0757230000
C          C       0.30819   0.14456   0.46681   0.6262980000
C          C       0.27798   0.14862   0.44451  -0.0576670000
C          C       0.27788   0.16115   0.40318  -0.0753160000
C          C       0.19180   0.35517   0.46675   0.6241420000
C          C       0.22202   0.35130   0.44430  -0.0571500000
C          C       0.22219   0.33876   0.40295  -0.0756360000
C          C       0.44183   0.10537   0.63347   0.6271360000
C          C       0.47208   0.10138   0.61116  -0.0576370000
C          C       0.47219   0.08886   0.56981  -0.0743110000
C          C       0.14494   0.44173   0.55006   0.6254500000
C          C       0.14877   0.47196   0.52765  -0.0567010000
C          C       0.16126   0.47214   0.48628  -0.0764260000
C          C       0.39447   0.19180   0.38337   0.6273480000
C          C       0.39860   0.22201   0.36108  -0.0577760000
C          C       0.41117   0.22212   0.65310  -0.0752880000
C          C       0.10519   0.30823   0.38336   0.6239280000
C          C       0.10127   0.27800   0.36095  -0.0577030000
C          C       0.08876   0.27782   0.65292  -0.0752410000
C          C       0.35554   0.05816   0.55008   0.6268830000
C          C       0.35139   0.02794   0.52784  -0.0577190000
C          C       0.33883   0.02781   0.48653  -0.0744650000
C          C       0.30828   0.35524   0.46674   0.6234420000
C          C       0.27807   0.35134   0.44430  -0.0570310000
C          C       0.27791   0.33878   0.40296  -0.0747230000
C          C       0.05833   0.10519   0.63328   0.6241740000
C          C       0.02810   0.10131   0.61095  -0.0569880000
C          C       0.02789   0.08871   0.56965  -0.0751410000
C          C       0.44178   0.39480   0.63339   0.6237640000
C          C       0.47201   0.39870   0.61100  -0.0574560000
C          C       0.47217   0.41124   0.56965  -0.0756800000
C          C       0.19174   0.14475   0.46672   0.6250960000
C          C       0.22198   0.14868   0.44439  -0.0574180000
C          C       0.22219   0.16122   0.40305  -0.0753140000
C          C       0.39473   0.30826   0.38341   0.6253400000
C          C       0.39873   0.27802   0.36110  -0.0579090000
C          C       0.41126   0.27780   0.65308  -0.0747670000
C          C       0.14471   0.05822   0.54996   0.6250550000
C          C       0.14869   0.02799   0.52761  -0.0570780000
C          C       0.16124   0.02783   0.48629  -0.0764600000
C          C       0.35537   0.44174   0.55015   0.6263820000
C          C       0.35129   0.47194   0.52780  -0.0575820000
C          C       0.33875   0.47212   0.48645  -0.0760130000
C          C       0.10534   0.19175   0.38332   0.6260620000
C          C       0.10131   0.22197   0.36097  -0.0582140000
C          C       0.08876   0.22213   0.65297  -0.0755550000
C          C       0.44182   0.35472   0.45034   0.6310040000
C          C       0.47206   0.35051   0.47236  -0.0601900000
C          C       0.47217   0.33795   0.51367  -0.0737260000
C          C       0.19190   0.10467   0.61648   0.6329550000
C          C       0.22207   0.10053   0.63872  -0.0607660000
C          C       0.22215   0.08801   0.34673  -0.0735770000
C          C       0.30818   0.39529   0.61694   0.6310300000
C          C       0.27799   0.39949   0.63920  -0.0597040000
C          C       0.27785   0.41203   0.34723  -0.0729360000
C          C       0.05813   0.14533   0.44981   0.6329320000
C          C       0.02795   0.14946   0.47202  -0.0606730000
C          C       0.02791   0.16197   0.51336  -0.0740050000
C          C       0.35476   0.30821   0.53371   0.6311600000
C          C       0.35057   0.27796   0.55574  -0.0607590000
C          C       0.33798   0.27786   0.59704  -0.0730990000
C          C       0.10472   0.05817   0.36683   0.6313620000
C          C       0.10048   0.02796   0.38888  -0.0607970000
C          C       0.08793   0.02793   0.43019  -0.0733640000
C          C       0.39533   0.44184   0.36697   0.6309180000
C          C       0.39951   0.47202   0.38920  -0.0609550000
C          C       0.41202   0.47213   0.43057  -0.0722980000
C          C       0.14526   0.19182   0.53358   0.6309830000
C          C       0.14947   0.22201   0.55579  -0.0599930000
C          C       0.16205   0.22211   0.59712  -0.0736190000
C          C       0.25002   0.39259   0.61878  -0.0895430000
C          C       0.24999   0.41778   0.36814  -0.0971000000
C          C      -0.00007   0.14247   0.45178  -0.0882020000
C          C       0.00013   0.16761   0.53448  -0.0951230000
C          C       0.00002   0.35747   0.45195  -0.0887520000
C          C      -0.00002   0.33231   0.53467  -0.0955240000
C          C       0.25009   0.10755   0.61847  -0.0882920000
C          C       0.24993   0.08239   0.36786  -0.0955350000
C          C       0.10742  -0.00003   0.36857  -0.0890540000
C          C       0.08226   0.00015   0.45127  -0.0953010000
C          C       0.14256   0.24999   0.53541  -0.0892490000
C          C       0.16777   0.24993   0.61809  -0.0962070000
C          C       0.00002   0.39171   0.63136  -0.0862680000
C          C       0.00002   0.41691   0.54872  -0.0936720000
C          C       0.24995   0.14168   0.46484  -0.0877010000
C          C       0.25007   0.16686   0.38217  -0.0934630000
C          C       0.25005   0.35830   0.46463  -0.0873230000
C          C       0.25006   0.33312   0.38202  -0.0944820000
C          C       0.00014   0.10834   0.63141  -0.0880500000
C          C      -0.00000   0.08313   0.54879  -0.0941470000
C          C       0.14173  -0.00003   0.54796  -0.0874740000
C          C       0.16686  -0.00001   0.46535  -0.0939850000
C          C       0.10827   0.24999   0.38131  -0.0861010000
C          C       0.08312   0.24996   0.63200  -0.0945060000
C          C       0.39171   0.25002   0.38146  -0.0873980000
C          C       0.41685   0.24995   0.63215  -0.0939530000
C          C       0.35829  -0.00007   0.54819  -0.0878980000
C          C       0.33313  -0.00001   0.46557  -0.0936280000
C          C       0.35746   0.24997   0.53533  -0.0883670000
C          C       0.33224   0.25007   0.61804  -0.0961200000
C          C       0.39256   0.00001   0.36886  -0.0883070000
C          C       0.41779  -0.00003   0.45150  -0.0975000000
H          H       0.20008   0.41739   0.36205   0.1202090000
H          H       0.45020   0.16721   0.52872   0.1201090000
H          H       0.04987   0.33277   0.52876   0.1203700000
H          H       0.29984   0.08277   0.36210   0.1203920000
H          H       0.08267   0.45028   0.44556   0.1196960000
H          H       0.33271   0.20021   0.61222   0.1201010000
H          H       0.16740   0.29980   0.61214   0.1200110000
H          H       0.41753   0.04982   0.44554   0.1205180000
H          H       0.04984   0.41667   0.55458   0.1192860000
H          H       0.29992   0.16651   0.38826   0.1190990000
H          H       0.20019   0.33336   0.38792   0.1186730000
H          H       0.45016   0.08349   0.55489   0.1182700000
H          H       0.16668   0.45017   0.47122   0.1193840000
H          H       0.41659   0.20011   0.63816   0.1192760000
H          H       0.08336   0.29979   0.63785   0.1185630000
H          H       0.33350   0.04985   0.47162   0.1182740000
H          H       0.29989   0.33331   0.38795   0.1188100000
H          H       0.04987   0.08320   0.55466   0.1192670000
H          H       0.45017   0.41667   0.55466   0.1189060000
H          H       0.20021   0.16672   0.38806   0.1187360000
H          H       0.41665   0.29978   0.63802   0.1183790000
H          H       0.16669   0.04983   0.47132   0.1190870000
H          H       0.33333   0.45013   0.47143   0.1195430000
H          H       0.08333   0.20014   0.63796   0.1190580000
H          H       0.45008   0.33259   0.52847   0.1198410000
H          H       0.20005   0.08265   0.36150   0.1197130000
H          H       0.29988   0.41734   0.36224   0.1197440000
H          H       0.05000   0.16731   0.52812   0.1197740000
H          H       0.33264   0.29994   0.61184   0.1197560000
H          H       0.08261   0.05002   0.44497   0.1199240000
H          H       0.41724   0.45009   0.44559   0.1198240000
H          H       0.16738   0.20005   0.61202   0.1201000000
H          H       0.25006   0.38294   0.58675   0.1358870000
H          H       0.25013   0.17608   0.34992   0.1151480000
H          H      -0.00020   0.13274   0.41979   0.1352810000
H          H      -0.00001   0.42608   0.51644   0.1153270000
H          H       0.00004   0.36719   0.41997   0.1357570000
H          H      -0.00008   0.07388   0.51656   0.1153360000
H          H       0.25022   0.11730   0.58650   0.1355320000
H          H       0.25005   0.32390   0.34976   0.1155790000
H          H       0.11710  -0.00012   0.33655   0.1354700000
H          H       0.32399   0.00003   0.43327   0.1150210000
H          H       0.13288   0.25000   0.50340   0.1361410000
H          H       0.42601   0.24992   0.59986   0.1153410000
H          H       0.00004   0.38199   0.66337   0.1351790000
H          H       0.00021   0.17679   0.56676   0.1139900000
H          H       0.24990   0.13196   0.49683   0.1360890000
H          H       0.24994   0.42701   0.40041   0.1146190000
H          H       0.25006   0.36801   0.49663   0.1349730000
H          H       0.24983   0.07322   0.40015   0.1144290000
H          H       0.00028   0.11807   0.66340   0.1355070000
H          H      -0.00007   0.32317   0.56696   0.1141260000
H          H       0.13198   0.00000   0.57995   0.1353490000
H          H       0.42702  -0.00007   0.48376   0.1148350000
H          H       0.11798   0.24998   0.41332   0.1353000000
H          H       0.32294   0.25016   0.65027   0.1142810000
H          H       0.38199   0.25002   0.41346   0.1355670000
H          H       0.17702   0.24990   0.65035   0.1143690000
H          H       0.36798  -0.00010   0.58019   0.1359610000
H          H       0.07304   0.00027   0.48353   0.1141690000
H          H       0.36711   0.24992   0.50328   0.1357650000
H          H       0.07395   0.24994   0.59972   0.1156980000
H          H       0.38293   0.00005   0.33682   0.1352930000
H          H       0.17605   0.00001   0.43308   0.1153400000
H          H       0.12691   0.14133   0.65449   0.4207060000
H          H       0.12320   0.10861   0.48787   0.4201710000
H          H       0.35864   0.37691   0.40462   0.4206170000
H          H       0.39148   0.37312   0.57133   0.4205560000
H          H       0.10860   0.12695   0.57121   0.4206370000
H          H       0.14142   0.12301   0.40455   0.4205650000
H          H       0.37683   0.39136   0.48800   0.4205590000
H          H       0.37322   0.35861   0.65461   0.4208970000
H          H       0.35863   0.12373   0.40404   0.4190370000
H          H       0.39129   0.12641   0.57065   0.4190580000
H          H       0.12676   0.35852   0.65463   0.4200050000
H          H       0.12325   0.39139   0.48786   0.4199280000
H          H       0.37654   0.10878   0.48734   0.4204420000
H          H       0.37350   0.14117   0.65355   0.4193210000
H          H       0.10857   0.37322   0.57126   0.4204120000
H          H       0.14144   0.37682   0.40454   0.4199560000
Al         Al      0.65871   0.37478   0.54268   1.6687390000
Al         Al      0.90856   0.12480   0.37590   1.6690690000
Al         Al      0.59131   0.37520   0.37599   1.6669260000
Al         Al      0.84136   0.12518   0.54260   1.6688980000
Al         Al      0.62521   0.40862   0.62602   1.6670280000
Al         Al      0.87519   0.15870   0.45930   1.6676000000
Al         Al      0.62481   0.34132   0.45932   1.6669940000
Al         Al      0.87482   0.09127   0.62593   1.6670760000
Al         Al      0.84141   0.37475   0.54276   1.6692860000
Al         Al      0.59140   0.12476   0.37587   1.6685240000
Al         Al      0.90865   0.37522   0.37597   1.6686270000
Al         Al      0.65864   0.12524   0.54256   1.6681980000
Al         Al      0.87522   0.34137   0.45936   1.6683200000
Al         Al      0.62523   0.09130   0.62582   1.6690010000
Al         Al      0.87483   0.40869   0.62601   1.6694390000
Al         Al      0.62479   0.15865   0.45918   1.6699000000
O          O       0.69089   0.37827   0.58374  -0.5828060000
O          O       0.66887   0.40951   0.63334  -0.5950320000
O          O       0.94086   0.12829   0.41684  -0.5829000000
O          O       0.91889   0.15966   0.46634  -0.5960860000
O          O       0.55910   0.37173   0.41694  -0.5830590000
O          O       0.58113   0.34042   0.46649  -0.5953120000
O          O       0.80914   0.12164   0.58346  -0.5837320000
O          O       0.83110   0.09033   0.63305  -0.5954300000
O          O       0.62171   0.44090   0.33360  -0.5829420000
O          O       0.59039   0.41890   0.38315  -0.5947820000
O          O       0.87165   0.19090   0.50030  -0.5836360000
O          O       0.84034   0.16888   0.54984  -0.5947660000
O          O       0.62831   0.30908   0.50030  -0.5828830000
O          O       0.65958   0.33110   0.54988  -0.5954390000
O          O       0.87832   0.05905   0.33364  -0.5830900000
O          O       0.90951   0.08112   0.38326  -0.5945280000
O          O       0.55904   0.37823   0.33374  -0.5860700000
O          O       0.58128   0.40887   0.61668  -0.6145320000
O          O       0.80901   0.12814   0.50052  -0.5869190000
O          O       0.83127   0.15854   0.44995  -0.6162470000
O          O       0.69095   0.37169   0.50041  -0.5862910000
O          O       0.66879   0.34093   0.45006  -0.6143470000
O          O       0.94096   0.12173   0.33392  -0.5875700000
O          O       0.91876   0.09141   0.61654  -0.6165980000
O          O       0.62833   0.44088   0.58364  -0.5869600000
O          O       0.65929   0.41876   0.53346  -0.6153180000
O          O       0.87810   0.19104   0.41716  -0.5879490000
O          O       0.90832   0.16868   0.36651  -0.6163800000
O          O       0.62175   0.30907   0.41698  -0.5854420000
O          O       0.59092   0.33124   0.36671  -0.6148900000
O          O       0.87196   0.05895   0.58382  -0.5871150000
O          O       0.84169   0.08129   0.53322  -0.6165490000
O          O       0.80912   0.37172   0.50043  -0.5864010000
O          O       0.83127   0.34099   0.45001  -0.6139950000
O          O       0.55919   0.12179   0.33353  -0.5868170000
O          O       0.58129   0.09083   0.61667  -0.6146060000
O          O       0.94091   0.37822   0.33365  -0.5858720000
O          O       0.91879   0.40909   0.61673  -0.6148710000
O          O       0.69090   0.12826   0.50040  -0.5866700000
O          O       0.66873   0.15890   0.44996  -0.6155270000
O          O       0.87830   0.30908   0.41713  -0.5861620000
O          O       0.90881   0.33130   0.36659  -0.6155580000
O          O       0.62817   0.05904   0.58358  -0.5862200000
O          O       0.65890   0.08126   0.53329  -0.6153980000
O          O       0.87176   0.44100   0.58391  -0.5872000000
O          O       0.84146   0.41863   0.53332  -0.6158390000
O          O       0.62186   0.19093   0.41696  -0.5872450000
O          O       0.59120   0.16870   0.36661  -0.6156240000
O          O       0.94086   0.37161   0.41693  -0.5840900000
O          O       0.91887   0.34053   0.46673  -0.5941500000
O          O       0.69097   0.12179   0.58333  -0.5830560000
O          O       0.66895   0.09023   0.63253  -0.5970740000
O          O       0.80910   0.37827   0.58364  -0.5830900000
O          O       0.83113   0.40961   0.63314  -0.5954310000
O          O       0.55906   0.12821   0.41664  -0.5831110000
O          O       0.58108   0.15974   0.46589  -0.5970070000
O          O       0.87163   0.30916   0.50030  -0.5830840000
O          O       0.84054   0.33115   0.55008  -0.5953910000
O          O       0.62172   0.05913   0.33352  -0.5836980000
O          O       0.59051   0.08110   0.38324  -0.5949050000
O          O       0.87832   0.44092   0.33367  -0.5831250000
O          O       0.90964   0.41889   0.38320  -0.5954420000
O          O       0.62828   0.19088   0.50025  -0.5834960000
O          O       0.65956   0.16889   0.54985  -0.5952110000
O          O       0.62820   0.37675   0.58549  -1.0042560000
O          O       0.87816   0.12678   0.41873  -1.0029910000
O          O       0.62184   0.37325   0.41882  -1.0035100000
O          O       0.87181   0.12326   0.58543  -1.0027590000
O          O       0.62323   0.37814   0.33553  -1.0032290000
O          O       0.87326   0.12824   0.50208  -1.0041690000
O          O       0.62679   0.37181   0.50217  -1.0036500000
O          O       0.87669   0.12180   0.33530  -1.0030410000
O          O       0.87322   0.37175   0.50220  -1.0051450000
O          O       0.62331   0.12174   0.33541  -1.0051060000
O          O       0.87676   0.37823   0.33550  -1.0051120000
O          O       0.62671   0.12823   0.50210  -1.0044120000
O          O       0.87823   0.37324   0.41885  -1.0050010000
O          O       0.62819   0.12326   0.58545  -1.0045480000
O          O       0.87188   0.37681   0.58554  -1.0047440000
O          O       0.62183   0.12674   0.41876  -1.0047140000
C          C       0.69182   0.39524   0.61706   0.6305430000
C          C       0.72204   0.39948   0.63920  -0.0598710000
C          C       0.72215   0.41206   0.34719  -0.0735220000
C          C       0.94181   0.14528   0.45015   0.6316710000
C          C       0.97201   0.14939   0.47233  -0.0597760000
C          C       0.97222   0.16190   0.51369  -0.0738140000
C          C       0.55819   0.35474   0.45024   0.6314610000
C          C       0.52799   0.35056   0.47240  -0.0598300000
C          C       0.52784   0.33804   0.51376  -0.0739700000
C          C       0.80820   0.10470   0.61681   0.6317840000
C          C       0.77800   0.10063   0.63902  -0.0602490000
C          C       0.77783   0.08811   0.34704  -0.0737000000
C          C       0.60471   0.44183   0.36693   0.6303780000
C          C       0.60052   0.47204   0.38910  -0.0587270000
C          C       0.58799   0.47227   0.43047  -0.0742770000
C          C       0.85465   0.19181   0.53364   0.6312100000
C          C       0.85052   0.22203   0.55581  -0.0598620000
C          C       0.83799   0.22222   0.59718  -0.0740590000
C          C       0.64529   0.30816   0.53363   0.6313030000
C          C       0.64950   0.27795   0.55583  -0.0603510000
C          C       0.66207   0.27778   0.59716  -0.0735620000
C          C       0.89523   0.05815   0.36704   0.6298460000
C          C       0.89943   0.02798   0.38930  -0.0593450000
C          C       0.91209   0.02782   0.43058  -0.0741950000
C          C       0.55823   0.39472   0.63340   0.6242610000
C          C       0.52802   0.39869   0.61100  -0.0579070000
C          C       0.52787   0.41123   0.56965  -0.0757230000
C          C       0.80819   0.14456   0.46681   0.6262980000
C          C       0.77798   0.14862   0.44451  -0.0576670000
C          C       0.77788   0.16115   0.40318  -0.0753160000
C          C       0.69180   0.35517   0.46675   0.6241420000
C          C       0.72203   0.35130   0.44430  -0.0571500000
C          C       0.72219   0.33876   0.40295  -0.0756360000
C          C       0.94183   0.10537   0.63347   0.6271360000
C          C       0.97208   0.10138   0.61116  -0.0576370000
C          C       0.97219   0.08886   0.56981  -0.0743110000
C          C       0.64494   0.44173   0.55006   0.6254500000
C          C       0.64877   0.47196   0.52765  -0.0567010000
C          C       0.66126   0.47214   0.48628  -0.0764260000
C          C       0.89447   0.19180   0.38337   0.6273480000
C          C       0.89860   0.22201   0.36108  -0.0577760000
C          C       0.91118   0.22212   0.65310  -0.0752880000
C          C       0.60519   0.30823   0.38336   0.6239280000
C          C       0.60127   0.27800   0.36095  -0.0577030000
C          C       0.58876   0.27782   0.65292  -0.0752410000
C          C       0.85554   0.05816   0.55008   0.6268830000
C          C       0.85139   0.02794   0.52784  -0.0577190000
C          C       0.83883   0.02781   0.48653  -0.0744650000
C          C       0.80828   0.35524   0.46674   0.6234420000
C          C       0.77807   0.35134   0.44430  -0.0570310000
C          C       0.77791   0.33878   0.40296  -0.0747230000
C          C       0.55833   0.10519   0.63328   0.6241740000
C          C       0.52810   0.10131   0.61095  -0.0569880000
C          C       0.52789   0.08871   0.56965  -0.0751410000
C          C       0.94178   0.39480   0.63339   0.6237640000
C          C       0.97201   0.39870   0.61100  -0.0574560000
C          C       0.97217   0.41124   0.56965  -0.0756800000
C          C       0.69175   0.14475   0.46672   0.6250960000
C          C       0.72198   0.14868   0.44439  -0.0574180000
C          C       0.72220   0.16122   0.40305  -0.0753140000
C          C       0.89473   0.30826   0.38341   0.6253400000
C          C       0.89874   0.27802   0.36110  -0.0579090000
C          C       0.91126   0.27780   0.65308  -0.0747670000
C          C       0.64470   0.05822   0.54996   0.6250550000
C          C       0.64869   0.02799   0.52761  -0.0570780000
C          C       0.66124   0.02783   0.48629  -0.0764600000
C          C       0.85537   0.44174   0.55015   0.6263820000
C          C       0.85129   0.47194   0.52780  -0.0575820000
C          C       0.83875   0.47212   0.48645  -0.0760130000
C          C       0.60533   0.19175   0.38332   0.6260620000
C          C       0.60131   0.22197   0.36097  -0.0582140000
C          C       0.58876   0.22213   0.65297  -0.0755550000
C          C       0.94182   0.35472   0.45034   0.6310040000
C          C       0.97206   0.35051   0.47236  -0.0601900000
C          C       0.97216   0.33795   0.51367  -0.0737260000
C          C       0.69190   0.10467   0.61648   0.6329550000
C          C       0.72207   0.10053   0.63872  -0.0607660000
C          C       0.72215   0.08801   0.34673  -0.0735770000
C          C       0.80818   0.39529   0.61694   0.6310300000
C          C       0.77799   0.39949   0.63920  -0.0597040000
C          C       0.77785   0.41203   0.34723  -0.0729360000
C          C       0.55814   0.14533   0.44981   0.6329320000
C          C       0.52795   0.14946   0.47202  -0.0606730000
C          C       0.52791   0.16197   0.51336  -0.0740050000
C          C       0.85476   0.30821   0.53371   0.6311600000
C          C       0.85056   0.27796   0.55574  -0.0607590000
C          C       0.83798   0.27786   0.59704  -0.0730990000
C          C       0.60472   0.05817   0.36683   0.6313620000
C          C       0.60047   0.02796   0.38888  -0.0607970000
C          C       0.58793   0.02793   0.43019  -0.0733640000
C          C       0.89533   0.44184   0.36697   0.6309180000
C          C       0.89952   0.47202   0.38920  -0.0609550000
C          C       0.91202   0.47213   0.43057  -0.0722980000
C          C       0.64526   0.19182   0.53358   0.6309830000
C          C       0.64947   0.22201   0.55579  -0.0599930000
C          C       0.66205   0.22211   0.59712  -0.0736190000
C          C       0.75002   0.39259   0.61878  -0.0895430000
C          C       0.74999   0.41778   0.36814  -0.0971000000
C          C       0.49993   0.14247   0.45178  -0.0882020000
C          C       0.50013   0.16761   0.53448  -0.0951230000
C          C       0.50003   0.35747   0.45195  -0.0887520000
C          C       0.49999   0.33231   0.53467  -0.0955240000
C          C       0.75009   0.10755   0.61847  -0.0882920000
C          C       0.74994   0.08239   0.36786  -0.0955350000
C          C       0.60742  -0.00003   0.36857  -0.0890540000
C          C       0.58226   0.00015   0.45127  -0.0953010000
C          C       0.64256   0.24999   0.53541  -0.0892490000
C          C       0.66777   0.24993   0.61809  -0.0962070000
C          C       0.50001   0.39171   0.63136  -0.0862680000
C          C       0.50002   0.41691   0.54872  -0.0936720000
C          C       0.74995   0.14168   0.46484  -0.0877010000
C          C       0.75007   0.16686   0.38217  -0.0934630000
C          C       0.75004   0.35830   0.46463  -0.0873230000
C          C       0.75006   0.33312   0.38202  -0.0944820000
C          C       0.50014   0.10834   0.63141  -0.0880500000
C          C       0.50000   0.08313   0.54879  -0.0941470000
C          C       0.64173  -0.00003   0.54796  -0.0874740000
C          C       0.66687  -0.00001   0.46535  -0.0939850000
C          C       0.60827   0.24999   0.38131  -0.0861010000
C          C       0.58312   0.24996   0.63200  -0.0945060000
C          C       0.89171   0.25002   0.38146  -0.0873980000
C          C       0.91685   0.24995   0.63215  -0.0939530000
C          C       0.85828  -0.00007   0.54819  -0.0878980000
C          C       0.83313  -0.00001   0.46557  -0.0936280000
C          C       0.85746   0.24997   0.53533  -0.0883670000
C          C       0.83223   0.25007   0.61804  -0.0961200000
C          C       0.89256   0.00001   0.36886  -0.0883070000
C          C       0.91779  -0.00003   0.45150  -0.0975000000
H          H       0.70008   0.41739   0.36205   0.1202090000
H          H       0.95020   0.16721   0.52872   0.1201090000
H          H       0.54987   0.33277   0.52876   0.1203700000
H          H       0.79983   0.08277   0.36210   0.1203920000
H          H       0.58267   0.45028   0.44556   0.1196960000
H          H       0.83271   0.20021   0.61222   0.1201010000
H          H       0.66740   0.29980   0.61214   0.1200110000
H          H       0.91753   0.04982   0.44554   0.1205180000
H          H       0.54985   0.41667   0.55458   0.1192860000
H          H       0.79992   0.16651   0.38826   0.1190990000
H          H       0.70020   0.33336   0.38792   0.1186730000
H          H       0.95015   0.08349   0.55489   0.1182700000
H          H       0.66669   0.45017   0.47122   0.1193840000
H          H       0.91660   0.20011   0.63816   0.1192760000
H          H       0.58336   0.29979   0.63785   0.1185630000
H          H       0.83350   0.04985   0.47162   0.1182740000
H          H       0.79989   0.33331   0.38795   0.1188100000
H          H       0.54987   0.08320   0.55466   0.1192670000
H          H       0.95017   0.41667   0.55466   0.1189060000
H          H       0.70021   0.16672   0.38806   0.1187360000
H          H       0.91666   0.29978   0.63802   0.1183790000
H          H       0.66669   0.04983   0.47132   0.1190870000
H          H       0.83333   0.45013   0.47143   0.1195430000
H          H       0.58333   0.20014   0.63796   0.1190580000
H          H       0.95008   0.33259   0.52847   0.1198410000
H          H       0.70005   0.08265   0.36150   0.1197130000
H          H       0.79988   0.41734   0.36224   0.1197440000
H          H       0.55000   0.16731   0.52812   0.1197740000
H          H       0.83264   0.29994   0.61184   0.1197560000
H          H       0.58261   0.05002   0.44497   0.1199240000
H          H       0.91725   0.45009   0.44559   0.1198240000
H          H       0.66738   0.20005   0.61202   0.1201000000
H          H       0.75006   0.38294   0.58675   0.1358870000
H          H       0.75013   0.17608   0.34992   0.1151480000
H          H       0.49980   0.13274   0.41979   0.1352810000
H          H       0.49999   0.42608   0.51644   0.1153270000
H          H       0.50005   0.36719   0.41997   0.1357570000
H          H       0.49993   0.07388   0.51656   0.1153360000
H          H       0.75022   0.11730   0.58650   0.1355320000
H          H       0.75005   0.32390   0.34976   0.1155790000
H          H       0.61710  -0.00012   0.33655   0.1354700000
H          H       0.82400   0.00003   0.43327   0.1150210000
H          H       0.63289   0.25000   0.50340   0.1361410000
H          H       0.92600   0.24992   0.59986   0.1153410000
H          H       0.50005   0.38199   0.66337   0.1351790000
H          H       0.50021   0.17679   0.56676   0.1139900000
H          H       0.74990   0.13196   0.49683   0.1360890000
H          H       0.74995   0.42701   0.40041   0.1146190000
H          H       0.75006   0.36801   0.49663   0.1349730000
H          H       0.74983   0.07322   0.40015   0.1144290000
H          H       0.50028   0.11807   0.66340   0.1355070000
H          H       0.49993   0.32317   0.56696   0.1141260000
H          H       0.63199   0.00000   0.57995   0.1353490000
H          H       0.92702  -0.00007   0.48376   0.1148350000
H          H       0.61798   0.24998   0.41332   0.1353000000
H          H       0.82294   0.25016   0.65027   0.1142810000
H          H       0.88199   0.25002   0.41346   0.1355670000
H          H       0.67702   0.24990   0.65035   0.1143690000
H          H       0.86798  -0.00010   0.58019   0.1359610000
H          H       0.57304   0.00027   0.48353   0.1141690000
H          H       0.86711   0.24992   0.50328   0.1357650000
H          H       0.57395   0.24994   0.59972   0.1156980000
H          H       0.88293   0.00005   0.33682   0.1352930000
H          H       0.67605   0.00001   0.43308   0.1153400000
H          H       0.62690   0.14133   0.65449   0.4207060000
H          H       0.62320   0.10861   0.48787   0.4201710000
H          H       0.85863   0.37691   0.40462   0.4206170000
H          H       0.89148   0.37312   0.57133   0.4205560000
H          H       0.60861   0.12695   0.57121   0.4206370000
H          H       0.64141   0.12301   0.40455   0.4205650000
H          H       0.87683   0.39136   0.48800   0.4205590000
H          H       0.87322   0.35861   0.65461   0.4208970000
H          H       0.85863   0.12373   0.40404   0.4190370000
H          H       0.89129   0.12641   0.57065   0.4190580000
H          H       0.62676   0.35852   0.65463   0.4200050000
H          H       0.62325   0.39139   0.48786   0.4199280000
H          H       0.87654   0.10878   0.48734   0.4204420000
H          H       0.87350   0.14117   0.65355   0.4193210000
H          H       0.60857   0.37322   0.57126   0.4204120000
H          H       0.64144   0.37682   0.40454   0.4199560000
Al         Al      0.15871   0.87478   0.54268   1.6687390000
Al         Al      0.40856   0.62480   0.37590   1.6690690000
Al         Al      0.09131   0.87520   0.37599   1.6669260000
Al         Al      0.34136   0.62517   0.54260   1.6688980000
Al         Al      0.12521   0.90862   0.62602   1.6670280000
Al         Al      0.37519   0.65870   0.45930   1.6676000000
Al         Al      0.12481   0.84132   0.45932   1.6669940000
Al         Al      0.37482   0.59127   0.62593   1.6670760000
Al         Al      0.34141   0.87475   0.54276   1.6692860000
Al         Al      0.09140   0.62476   0.37587   1.6685240000
Al         Al      0.40865   0.87522   0.37597   1.6686270000
Al         Al      0.15864   0.62523   0.54256   1.6681980000
Al         Al      0.37522   0.84137   0.45936   1.6683200000
Al         Al      0.12524   0.59130   0.62582   1.6690010000
Al         Al      0.37483   0.90869   0.62601   1.6694390000
Al         Al      0.12479   0.65865   0.45918   1.6699000000
O          O       0.19089   0.87827   0.58374  -0.5828060000
O          O       0.16886   0.90951   0.63334  -0.5950320000
O          O       0.44086   0.62829   0.41684  -0.5829000000
O          O       0.41888   0.65967   0.46634  -0.5960860000
O          O       0.05910   0.87173   0.41694  -0.5830590000
O          O       0.08113   0.84043   0.46649  -0.5953120000
O          O       0.30913   0.62164   0.58346  -0.5837320000
O          O       0.33110   0.59033   0.63305  -0.5954300000
O          O       0.12170   0.94090   0.33360  -0.5829420000
O          O       0.09039   0.91889   0.38315  -0.5947820000
O          O       0.37165   0.69090   0.50030  -0.5836360000
O          O       0.34033   0.66888   0.54984  -0.5947660000
O          O       0.12830   0.80908   0.50030  -0.5828830000
O          O       0.15958   0.83110   0.54988  -0.5954390000
O          O       0.37831   0.55905   0.33364  -0.5830900000
O          O       0.40950   0.58112   0.38326  -0.5945280000
O          O       0.05903   0.87823   0.33374  -0.5860700000
O          O       0.08128   0.90887   0.61668  -0.6145320000
O          O       0.30901   0.62814   0.50052  -0.5869190000
O          O       0.33127   0.65853   0.44995  -0.6162470000
O          O       0.19095   0.87169   0.50041  -0.5862910000
O          O       0.16879   0.84093   0.45006  -0.6143470000
O          O       0.44096   0.62173   0.33392  -0.5875700000
O          O       0.41876   0.59142   0.61654  -0.6165980000
O          O       0.12832   0.94088   0.58364  -0.5869600000
O          O       0.15928   0.91876   0.53346  -0.6153180000
O          O       0.37810   0.69104   0.41716  -0.5879490000
O          O       0.40832   0.66868   0.36651  -0.6163800000
O          O       0.12175   0.80907   0.41698  -0.5854420000
O          O       0.09092   0.83124   0.36671  -0.6148900000
O          O       0.37196   0.55895   0.58382  -0.5871150000
O          O       0.34169   0.58129   0.53322  -0.6165490000
O          O       0.30912   0.87172   0.50043  -0.5864010000
O          O       0.33126   0.84100   0.45001  -0.6139950000
O          O       0.05920   0.62179   0.33353  -0.5868170000
O          O       0.08128   0.59083   0.61667  -0.6146060000
O          O       0.44090   0.87823   0.33365  -0.5858720000
O          O       0.41879   0.90909   0.61673  -0.6148710000
O          O       0.19090   0.62826   0.50040  -0.5866700000
O          O       0.16873   0.65890   0.44996  -0.6155270000
O          O       0.37829   0.80908   0.41713  -0.5861620000
O          O       0.40881   0.83130   0.36659  -0.6155580000
O          O       0.12817   0.55905   0.58358  -0.5862200000
O          O       0.15890   0.58127   0.53329  -0.6153980000
O          O       0.37176   0.94100   0.58391  -0.5872000000
O          O       0.34146   0.91863   0.53332  -0.6158390000
O          O       0.12186   0.69093   0.41696  -0.5872450000
O          O       0.09119   0.66870   0.36661  -0.6156240000
O          O       0.44086   0.87161   0.41693  -0.5840900000
O          O       0.41887   0.84054   0.46673  -0.5941500000
O          O       0.19097   0.62179   0.58333  -0.5830560000
O          O       0.16895   0.59024   0.63253  -0.5970740000
O          O       0.30910   0.87827   0.58364  -0.5830900000
O          O       0.33112   0.90961   0.63314  -0.5954310000
O          O       0.05906   0.62821   0.41664  -0.5831110000
O          O       0.08107   0.65975   0.46589  -0.5970070000
O          O       0.37163   0.80916   0.50030  -0.5830840000
O          O       0.34053   0.83115   0.55008  -0.5953910000
O          O       0.12172   0.55913   0.33352  -0.5836980000
O          O       0.09050   0.58110   0.38324  -0.5949050000
O          O       0.37832   0.94091   0.33367  -0.5831250000
O          O       0.40964   0.91889   0.38320  -0.5954420000
O          O       0.12827   0.69088   0.50025  -0.5834960000
O          O       0.15956   0.66889   0.54985  -0.5952110000
O          O       0.12820   0.87675   0.58549  -1.0042560000
O          O       0.37816   0.62678   0.41873  -1.0029910000
O          O       0.12183   0.87325   0.41882  -1.0035100000
O          O       0.37181   0.62326   0.58543  -1.0027590000
O          O       0.12323   0.87814   0.33553  -1.0032290000
O          O       0.37326   0.62824   0.50208  -1.0041690000
O          O       0.12679   0.87181   0.50217  -1.0036500000
O          O       0.37669   0.62181   0.33530  -1.0030410000
O          O       0.37322   0.87175   0.50220  -1.0051450000
O          O       0.12331   0.62174   0.33541  -1.0051060000
O          O       0.37676   0.87823   0.33550  -1.0051120000
O          O       0.12671   0.62823   0.50210  -1.0044120000
O          O       0.37822   0.87324   0.41885  -1.0050010000
O          O       0.12819   0.62326   0.58545  -1.0045480000
O          O       0.37188   0.87682   0.58554  -1.0047440000
O          O       0.12182   0.62674   0.41876  -1.0047140000
C          C       0.19182   0.89524   0.61706   0.6305430000
C          C       0.22204   0.89948   0.63920  -0.0598710000
C          C       0.22215   0.91206   0.34719  -0.0735220000
C          C       0.44180   0.64528   0.45015   0.6316710000
C          C       0.47201   0.64940   0.47233  -0.0597760000
C          C       0.47222   0.66190   0.51369  -0.0738140000
C          C       0.05818   0.85473   0.45024   0.6314610000
C          C       0.02798   0.85056   0.47240  -0.0598300000
C          C       0.02784   0.83804   0.51376  -0.0739700000
C          C       0.30820   0.60470   0.61681   0.6317840000
C          C       0.27800   0.60063   0.63902  -0.0602490000
C          C       0.27783   0.58810   0.34704  -0.0737000000
C          C       0.10471   0.94183   0.36693   0.6303780000
C          C       0.10052   0.97204   0.38910  -0.0587270000
C          C       0.08799   0.97227   0.43047  -0.0742770000
C          C       0.35465   0.69181   0.53364   0.6312100000
C          C       0.35052   0.72203   0.55581  -0.0598620000
C          C       0.33799   0.72222   0.59718  -0.0740590000
C          C       0.14529   0.80815   0.53363   0.6313030000
C          C       0.14950   0.77795   0.55583  -0.0603510000
C          C       0.16206   0.77778   0.59716  -0.0735620000
C          C       0.39523   0.55816   0.36704   0.6298460000
C          C       0.39943   0.52798   0.38930  -0.0593450000
C          C       0.41209   0.52782   0.43058  -0.0741950000
C          C       0.05823   0.89472   0.63340   0.6242610000
C          C       0.02802   0.89868   0.61100  -0.0579070000
C          C       0.02787   0.91123   0.56965  -0.0757230000
C          C       0.30819   0.64456   0.46681   0.6262980000
C          C       0.27798   0.64862   0.44451  -0.0576670000
C          C       0.27788   0.66115   0.40318  -0.0753160000
C          C       0.19180   0.85517   0.46675   0.6241420000
C          C       0.22203   0.85130   0.44430  -0.0571500000
C          C       0.22219   0.83876   0.40295  -0.0756360000
C          C       0.44183   0.60537   0.63347   0.6271360000
C          C       0.47208   0.60138   0.61116  -0.0576370000
C          C       0.47219   0.58886   0.56981  -0.0743110000
C          C       0.14494   0.94173   0.55006   0.6254500000
C          C       0.14877   0.97196   0.52765  -0.0567010000
C          C       0.16126   0.97214   0.48628  -0.0764260000
C          C       0.39447   0.69181   0.38337   0.6273480000
C          C       0.39860   0.72202   0.36108  -0.0577760000
C          C       0.41117   0.72213   0.65310  -0.0752880000
C          C       0.10519   0.80823   0.38336   0.6239280000
C          C       0.10127   0.77800   0.36095  -0.0577030000
C          C       0.08876   0.77782   0.65292  -0.0752410000
C          C       0.35554   0.55817   0.55008   0.6268830000
C          C       0.35139   0.52794   0.52784  -0.0577190000
C          C       0.33883   0.52781   0.48653  -0.0744650000
C          C       0.30828   0.85524   0.46674   0.6234420000
C          C       0.27807   0.85134   0.44430  -0.0570310000
C          C       0.27791   0.83878   0.40296  -0.0747230000
C          C       0.05833   0.60519   0.63328   0.6241740000
C          C       0.02810   0.60131   0.61095  -0.0569880000
C          C       0.02789   0.58871   0.56965  -0.0751410000
C          C       0.44178   0.89480   0.63339   0.6237640000
C          C       0.47201   0.89870   0.61100  -0.0574560000
C          C       0.47217   0.91124   0.56965  -0.0756800000
C          C       0.19174   0.64475   0.46672   0.6250960000
C          C       0.22198   0.64868   0.44439  -0.0574180000
C          C       0.22220   0.66122   0.40305  -0.0753140000
C          C       0.39473   0.80825   0.38341   0.6253400000
C          C       0.39873   0.77802   0.36110  -0.0579090000
C          C       0.41126   0.77780   0.65308  -0.0747670000
C          C       0.14470   0.55822   0.54996   0.6250550000
C          C       0.14869   0.52799   0.52761  -0.0570780000
C          C       0.16124   0.52783   0.48629  -0.0764600000
C          C       0.35536   0.94174   0.55015   0.6263820000
C          C       0.35129   0.97194   0.52780  -0.0575820000
C          C       0.33875   0.97212   0.48645  -0.0760130000
C          C       0.10534   0.69175   0.38332   0.6260620000
C          C       0.10131   0.72198   0.36097  -0.0582140000
C          C       0.08876   0.72213   0.65297  -0.0755550000
C          C       0.44182   0.85472   0.45034   0.6310040000
C          C       0.47206   0.85051   0.47236  -0.0601900000
C          C       0.47216   0.83795   0.51367  -0.0737260000
C          C       0.19190   0.60467   0.61648   0.6329550000
C          C       0.22207   0.60053   0.63872  -0.0607660000
C          C       0.22215   0.58801   0.34673  -0.0735770000
C          C       0.30818   0.89530   0.61694   0.6310300000
C          C       0.27799   0.89949   0.63920  -0.0597040000
C          C       0.27785   0.91203   0.34723  -0.0729360000
C          C       0.05813   0.64533   0.44981   0.6329320000
C          C       0.02795   0.64946   0.47202  -0.0606730000
C          C       0.02791   0.66197   0.51336  -0.0740050000
C          C       0.35476   0.80821   0.53371   0.6311600000
C          C       0.35057   0.77796   0.55574  -0.0607590000
C          C       0.33798   0.77786   0.59704  -0.0730990000
C          C       0.10472   0.55817   0.36683   0.6313620000
C          C       0.10047   0.52796   0.38888  -0.0607970000
C          C       0.08793   0.52793   0.43019  -0.0733640000
C          C       0.39533   0.94184   0.36697   0.6309180000
C          C       0.39951   0.97202   0.38920  -0.0609550000
C          C       0.41202   0.97213   0.43057  -0.0722980000
C          C       0.14525   0.69183   0.53358   0.6309830000
C          C       0.14947   0.72201   0.55579  -0.0599930000
C          C       0.16205   0.72211   0.59712  -0.0736190000
C          C       0.25002   0.89259   0.61878  -0.0895430000
C          C       0.24999   0.91778   0.36814  -0.0971000000
C          C      -0.00007   0.64246   0.45178  -0.0882020000
C          C       0.00012   0.66761   0.53448  -0.0951230000
C          C       0.00002   0.85748   0.45195  -0.0887520000
C          C      -0.00002   0.83231   0.53467  -0.0955240000
C          C       0.25009   0.60755   0.61847  -0.0882920000
C          C       0.24993   0.58239   0.36786  -0.0955350000
C          C       0.10742   0.49996   0.36857  -0.0890540000
C          C       0.08226   0.50016   0.45127  -0.0953010000
C          C       0.14256   0.74999   0.53541  -0.0892490000
C          C       0.16777   0.74994   0.61809  -0.0962070000
C          C       0.00002   0.89171   0.63136  -0.0862680000
C          C       0.00002   0.91690   0.54872  -0.0936720000
C          C       0.24995   0.64168   0.46484  -0.0877010000
C          C       0.25007   0.66686   0.38217  -0.0934630000
C          C       0.25005   0.85830   0.46463  -0.0873230000
C          C       0.25005   0.83312   0.38202  -0.0944820000
C          C       0.00014   0.60834   0.63141  -0.0880500000
C          C      -0.00001   0.58313   0.54879  -0.0941470000
C          C       0.14173   0.49998   0.54796  -0.0874740000
C          C       0.16686   0.49999   0.46535  -0.0939850000
C          C       0.10827   0.75000   0.38131  -0.0861010000
C          C       0.08312   0.74996   0.63200  -0.0945060000
C          C       0.39170   0.75003   0.38146  -0.0873980000
C          C       0.41685   0.74995   0.63215  -0.0939530000
C          C       0.35829   0.49993   0.54819  -0.0878980000
C          C       0.33313   0.49999   0.46557  -0.0936280000
C          C       0.35746   0.74998   0.53533  -0.0883670000
C          C       0.33224   0.75008   0.61804  -0.0961200000
C          C       0.39256   0.50001   0.36886  -0.0883070000
C          C       0.41778   0.49996   0.45150  -0.0975000000
H          H       0.20008   0.91739   0.36205   0.1202090000
H          H       0.45020   0.66721   0.52872   0.1201090000
H          H       0.04987   0.83277   0.52876   0.1203700000
H          H       0.29984   0.58277   0.36210   0.1203920000
H          H       0.08267   0.95029   0.44556   0.1196960000
H          H       0.33271   0.70021   0.61222   0.1201010000
H          H       0.16740   0.79980   0.61214   0.1200110000
H          H       0.41753   0.54983   0.44554   0.1205180000
H          H       0.04984   0.91666   0.55458   0.1192860000
H          H       0.29992   0.66651   0.38826   0.1190990000
H          H       0.20019   0.83336   0.38792   0.1186730000
H          H       0.45015   0.58349   0.55489   0.1182700000
H          H       0.16668   0.95017   0.47122   0.1193840000
H          H       0.41659   0.70011   0.63816   0.1192760000
H          H       0.08336   0.79979   0.63785   0.1185630000
H          H       0.33350   0.54985   0.47162   0.1182740000
H          H       0.29989   0.83331   0.38795   0.1188100000
H          H       0.04987   0.58320   0.55466   0.1192670000
H          H       0.45017   0.91666   0.55466   0.1189060000
H          H       0.20021   0.66672   0.38806   0.1187360000
H          H       0.41665   0.79978   0.63802   0.1183790000
H          H       0.16669   0.54983   0.47132   0.1190870000
H          H       0.33333   0.95013   0.47143   0.1195430000
H          H       0.08333   0.70014   0.63796   0.1190580000
H          H       0.45008   0.83259   0.52847   0.1198410000
H          H       0.20005   0.58265   0.36150   0.1197130000
H          H       0.29988   0.91734   0.36224   0.1197440000
H          H       0.05000   0.66731   0.52812   0.1197740000
H          H       0.33264   0.79994   0.61184   0.1197560000
H          H       0.08261   0.55002   0.44497   0.1199240000
H          H       0.41724   0.95010   0.44559   0.1198240000
H          H       0.16737   0.70005   0.61202   0.1201000000
H          H       0.25006   0.88294   0.58675   0.1358870000
H          H       0.25013   0.67607   0.34992   0.1151480000
H          H      -0.00020   0.63274   0.41979   0.1352810000
H          H      -0.00001   0.92608   0.51644   0.1153270000
H          H       0.00005   0.86719   0.41997   0.1357570000
H          H      -0.00008   0.57388   0.51656   0.1153360000
H          H       0.25022   0.61730   0.58650   0.1355320000
H          H       0.25005   0.82390   0.34976   0.1155790000
H          H       0.11710   0.49988   0.33655   0.1354700000
H          H       0.32399   0.50004   0.43327   0.1150210000
H          H       0.13288   0.75000   0.50340   0.1361410000
H          H       0.42601   0.74993   0.59986   0.1153410000
H          H       0.00004   0.88199   0.66337   0.1351790000
H          H       0.00021   0.67679   0.56676   0.1139900000
H          H       0.24990   0.63196   0.49683   0.1360890000
H          H       0.24995   0.92701   0.40041   0.1146190000
H          H       0.25006   0.86801   0.49663   0.1349730000
H          H       0.24983   0.57322   0.40015   0.1144290000
H          H       0.00028   0.61806   0.66340   0.1355070000
H          H      -0.00007   0.82317   0.56696   0.1141260000
H          H       0.13198   0.50000   0.57995   0.1353490000
H          H       0.42702   0.49993   0.48376   0.1148350000
H          H       0.11798   0.74998   0.41332   0.1353000000
H          H       0.32294   0.75016   0.65027   0.1142810000
H          H       0.38199   0.75003   0.41346   0.1355670000
H          H       0.17702   0.74990   0.65035   0.1143690000
H          H       0.36798   0.49990   0.58019   0.1359610000
H          H       0.07304   0.50028   0.48353   0.1141690000
H          H       0.36711   0.74992   0.50328   0.1357650000
H          H       0.07395   0.74994   0.59972   0.1156980000
H          H       0.38293   0.50004   0.33682   0.1352930000
H          H       0.17605   0.50001   0.43308   0.1153400000
H          H       0.12690   0.64133   0.65449   0.4207060000
H          H       0.12320   0.60861   0.48787   0.4201710000
H          H       0.35864   0.87691   0.40462   0.4206170000
H          H       0.39147   0.87312   0.57133   0.4205560000
H          H       0.10860   0.62694   0.57121   0.4206370000
H          H       0.14141   0.62301   0.40455   0.4205650000
H          H       0.37682   0.89136   0.48800   0.4205590000
H          H       0.37322   0.85862   0.65461   0.4208970000
H          H       0.35863   0.62372   0.40404   0.4190370000
H          H       0.39129   0.62642   0.57065   0.4190580000
H          H       0.12676   0.85852   0.65463   0.4200050000
H          H       0.12325   0.89139   0.48786   0.4199280000
H          H       0.37654   0.60878   0.48734   0.4204420000
H          H       0.37349   0.64116   0.65355   0.4193210000
H          H       0.10857   0.87322   0.57126   0.4204120000
H          H       0.14144   0.87682   0.40454   0.4199560000
Al         Al      0.65871   0.87478   0.54268   1.6687390000
Al         Al      0.90856   0.62480   0.37590   1.6690690000
Al         Al      0.59131   0.87520   0.37599   1.6669260000
Al         Al      0.84136   0.62517   0.54260   1.6688980000
Al         Al      0.62521   0.90862   0.62602   1.6670280000
Al         Al      0.87519   0.65870   0.45930   1.6676000000
Al         Al      0.62481   0.84132   0.45932   1.6669940000
Al         Al      0.87482   0.59127   0.62593   1.6670760000
Al         Al      0.84141   0.87475   0.54276   1.6692860000
Al         Al      0.59140   0.62476   0.37587   1.6685240000
Al         Al      0.90865   0.87522   0.37597   1.6686270000
Al         Al      0.65864   0.62523   0.54256   1.6681980000
Al         Al      0.87522   0.84137   0.45936   1.6683200000
Al         Al      0.62523   0.59130   0.62582   1.6690010000
Al         Al      0.87483   0.90869   0.62601   1.6694390000
Al         Al      0.62479   0.65865   0.45918   1.6699000000
O          O       0.69089   0.87827   0.58374  -0.5828060000
O          O       0.66886   0.90951   0.63334  -0.5950320000
O          O       0.94086   0.62829   0.41684  -0.5829000000
O          O       0.91889   0.65967   0.46634  -0.5960860000
O          O       0.55910   0.87173   0.41694  -0.5830590000
O          O       0.58113   0.84043   0.46649  -0.5953120000
O          O       0.80914   0.62164   0.58346  -0.5837320000
O          O       0.83110   0.59033   0.63305  -0.5954300000
O          O       0.62170   0.94090   0.33360  -0.5829420000
O          O       0.59039   0.91889   0.38315  -0.5947820000
O          O       0.87165   0.69090   0.50030  -0.5836360000
O          O       0.84034   0.66888   0.54984  -0.5947660000
O          O       0.62831   0.80908   0.50030  -0.5828830000
O          O       0.65958   0.83110   0.54988  -0.5954390000
O          O       0.87832   0.55905   0.33364  -0.5830900000
O          O       0.90951   0.58112   0.38326  -0.5945280000
O          O       0.55904   0.87823   0.33374  -0.5860700000
O          O       0.58128   0.90887   0.61668  -0.6145320000
O          O       0.80901   0.62814   0.50052  -0.5869190000
O          O       0.83127   0.65853   0.44995  -0.6162470000
O          O       0.69095   0.87169   0.50041  -0.5862910000
O          O       0.66879   0.84093   0.45006  -0.6143470000
O          O       0.94096   0.62173   0.33392  -0.5875700000
O          O       0.91876   0.59142   0.61654  -0.6165980000
O          O       0.62832   0.94088   0.58364  -0.5869600000
O          O       0.65928   0.91876   0.53346  -0.6153180000
O          O       0.87810   0.69104   0.41716  -0.5879490000
O          O       0.90832   0.66868   0.36651  -0.6163800000
O          O       0.62175   0.80907   0.41698  -0.5854420000
O          O       0.59092   0.83124   0.36671  -0.6148900000
O          O       0.87196   0.55895   0.58382  -0.5871150000
O          O       0.84169   0.58129   0.53322  -0.6165490000
O          O       0.80912   0.87172   0.50043  -0.5864010000
O          O       0.83127   0.84100   0.45001  -0.6139950000
O          O       0.55919   0.62179   0.33353  -0.5868170000
O          O       0.58129   0.59083   0.61667  -0.6146060000
O          O       0.94091   0.87823   0.33365  -0.5858720000
O          O       0.91879   0.90909   0.61673  -0.6148710000
O          O       0.69090   0.62826   0.50040  -0.5866700000
O          O       0.66873   0.65890   0.44996  -0.6155270000
O          O       0.87830   0.80908   0.41713  -0.5861620000
O          O       0.90881   0.83130   0.36659  -0.6155580000
O          O       0.62817   0.55905   0.58358  -0.5862200000
O          O       0.65890   0.58127   0.53329  -0.6153980000
O          O       0.87176   0.94100   0.58391  -0.5872000000
O          O       0.84145   0.91863   0.53332  -0.6158390000
O          O       0.62186   0.69093   0.41696  -0.5872450000
O          O       0.59120   0.66870   0.36661  -0.6156240000
O          O       0.94086   0.87161   0.41693  -0.5840900000
O          O       0.91887   0.84054   0.46673  -0.5941500000
O          O       0.69097   0.62179   0.58333  -0.5830560000
O          O       0.66895   0.59024   0.63253  -0.5970740000
O          O       0.80910   0.87827   0.58364  -0.5830900000
O          O       0.83113   0.90961   0.63314  -0.5954310000
O          O       0.55906   0.62821   0.41664  -0.5831110000
O          O       0.58108   0.65975   0.46589  -0.5970070000
O          O       0.87163   0.80916   0.50030  -0.5830840000
O          O       0.84054   0.83115   0.55008  -0.5953910000
O          O       0.62172   0.55913   0.33352  -0.5836980000
O          O       0.59051   0.58110   0.38324  -0.5949050000
O          O       0.87832   0.94091   0.33367  -0.5831250000
O          O       0.90963   0.91889   0.38320  -0.5954420000
O          O       0.62828   0.69088   0.50025  -0.5834960000
O          O       0.65956   0.66889   0.54985  -0.5952110000
O          O       0.62820   0.87675   0.58549  -1.0042560000
O          O       0.87816   0.62678   0.41873  -1.0029910000
O          O       0.62184   0.87325   0.41882  -1.0035100000
O          O       0.87181   0.62326   0.58543  -1.0027590000
O          O       0.62323   0.87814   0.33553  -1.0032290000
O          O       0.87326   0.62824   0.50208  -1.0041690000
O          O       0.62679   0.87181   0.50217  -1.0036500000
O          O       0.87669   0.62181   0.33530  -1.0030410000
O          O       0.87322   0.87175   0.50220  -1.0051450000
O          O       0.62331   0.62174   0.33541  -1.0051060000
O          O       0.87676   0.87823   0.33550  -1.0051120000
O          O       0.62671   0.62823   0.50210  -1.0044120000
O          O       0.87823   0.87324   0.41885  -1.0050010000
O          O       0.62819   0.62326   0.58545  -1.0045480000
O          O       0.87188   0.87682   0.58554  -1.0047440000
O          O       0.62183   0.62674   0.41876  -1.0047140000
C          C       0.69182   0.89524   0.61706   0.6305430000
C          C       0.72204   0.89948   0.63920  -0.0598710000
C          C       0.72215   0.91206   0.34719  -0.0735220000
C          C       0.94181   0.64528   0.45015   0.6316710000
C          C       0.97201   0.64940   0.47233  -0.0597760000
C          C       0.97222   0.66190   0.51369  -0.0738140000
C          C       0.55819   0.85473   0.45024   0.6314610000
C          C       0.52799   0.85056   0.47240  -0.0598300000
C          C       0.52784   0.83804   0.51376  -0.0739700000
C          C       0.80820   0.60470   0.61681   0.6317840000
C          C       0.77800   0.60063   0.63902  -0.0602490000
C          C       0.77783   0.58810   0.34704  -0.0737000000
C          C       0.60470   0.94183   0.36693   0.6303780000
C          C       0.60052   0.97204   0.38910  -0.0587270000
C          C       0.58799   0.97227   0.43047  -0.0742770000
C          C       0.85465   0.69181   0.53364   0.6312100000
C          C       0.85052   0.72203   0.55581  -0.0598620000
C          C       0.83799   0.72222   0.59718  -0.0740590000
C          C       0.64529   0.80815   0.53363   0.6313030000
C          C       0.64950   0.77795   0.55583  -0.0603510000
C          C       0.66207   0.77778   0.59716  -0.0735620000
C          C       0.89523   0.55816   0.36704   0.6298460000
C          C       0.89943   0.52798   0.38930  -0.0593450000
C          C       0.91209   0.52782   0.43058  -0.0741950000
C          C       0.55823   0.89472   0.63340   0.6242610000
C          C       0.52802   0.89868   0.61100  -0.0579070000
C          C       0.52787   0.91123   0.56965  -0.0757230000
C          C       0.80819   0.64456   0.46681   0.6262980000
C          C       0.77798   0.64862   0.44451  -0.0576670000
C          C       0.77788   0.66115   0.40318  -0.0753160000
C          C       0.69180   0.85517   0.46675   0.6241420000
C          C       0.72203   0.85130   0.44430  -0.0571500000
C          C       0.72219   0.83876   0.40295  -0.0756360000
C          C       0.94183   0.60537   0.63347   0.6271360000
C          C       0.97208   0.60138   0.61116  -0.0576370000
C          C       0.97219   0.58886   0.56981  -0.0743110000
C          C       0.64494   0.94173   0.55006   0.6254500000
C          C       0.64877   0.97196   0.52765  -0.0567010000
C          C       0.66126   0.97214   0.48628  -0.0764260000
C          C       0.89447   0.69181   0.38337   0.6273480000
C          C       0.89860   0.72202   0.36108  -0.0577760000
C          C       0.91118   0.72213   0.65310  -0.0752880000
C          C       0.60519   0.80823   0.38336   0.6239280000
C          C       0.60127   0.77800   0.36095  -0.0577030000
C          C       0.58876   0.77782   0.65292  -0.0752410000
C          C       0.85554   0.55817   0.55008   0.6268830000
C          C       0.85139   0.52794   0.52784  -0.0577190000
C          C       0.83883   0.52781   0.48653  -0.0744650000
C          C       0.80828   0.85524   0.46674   0.6234420000
C          C       0.77807   0.85134   0.44430  -0.0570310000
C          C       0.77791   0.83878   0.40296  -0.0747230000
C          C       0.55833   0.60519   0.63328   0.6241740000
C          C       0.52810   0.60131   0.61095  -0.0569880000
C          C       0.52789   0.58871   0.56965  -0.0751410000
C          C       0.94178   0.89480   0.63339   0.6237640000
C          C       0.97201   0.89870   0.61100  -0.0574560000
C          C       0.97217   0.91124   0.56965  -0.0756800000
C          C       0.69175   0.64475   0.46672   0.6250960000
C          C       0.72198   0.64868   0.44439  -0.0574180000
C          C       0.72220   0.66122   0.40305  -0.0753140000
C          C       0.89473   0.80825   0.38341   0.6253400000
C          C       0.89874   0.77802   0.36110  -0.0579090000
C          C       0.91126   0.77780   0.65308  -0.0747670000
C          C       0.64470   0.55822   0.54996   0.6250550000
C          C       0.64869   0.52799   0.52761  -0.0570780000
C          C       0.66124   0.52783   0.48629  -0.0764600000
C          C       0.85536   0.94174   0.55015   0.6263820000
C          C       0.85129   0.97194   0.52780  -0.0575820000
C          C       0.83875   0.97212   0.48645  -0.0760130000
C          C       0.60533   0.69175   0.38332   0.6260620000
C          C       0.60131   0.72198   0.36097  -0.0582140000
C          C       0.58876   0.72213   0.65297  -0.0755550000
C          C       0.94182   0.85472   0.45034   0.6310040000
C          C       0.97206   0.85051   0.47236  -0.0601900000
C          C       0.97216   0.83795   0.51367  -0.0737260000
C          C       0.69190   0.60467   0.61648   0.6329550000
C          C       0.72207   0.60053   0.63872  -0.0607660000
C          C       0.72215   0.58801   0.34673  -0.0735770000
C          C       0.80818   0.89530   0.61694   0.6310300000
C          C       0.77799   0.89949   0.63920  -0.0597040000
C          C       0.77785   0.91203   0.34723  -0.0729360000
C          C       0.55814   0.64533   0.44981   0.6329320000
C          C       0.52795   0.64946   0.47202  -0.0606730000
C          C       0.52791   0.66197   0.51336  -0.0740050000
C          C       0.85476   0.80821   0.53371   0.6311600000
C          C       0.85056   0.77796   0.55574  -0.0607590000
C          C       0.83798   0.77786   0.59704  -0.0730990000
C          C       0.60472   0.55817   0.36683   0.6313620000
C          C       0.60047   0.52796   0.38888  -0.0607970000
C          C       0.58793   0.52793   0.43019  -0.0733640000
C          C       0.89533   0.94184   0.36697   0.6309180000
C          C       0.89951   0.97202   0.38920  -0.0609550000
C          C       0.91202   0.97213   0.43057  -0.0722980000
C          C       0.64526   0.69183   0.53358   0.6309830000
C          C       0.64947   0.72201   0.55579  -0.0599930000
C          C       0.66205   0.72211   0.59712  -0.0736190000
C          C       0.75002   0.89259   0.61878  -0.0895430000
C          C       0.74999   0.91778   0.36814  -0.0971000000
C          C       0.49993   0.64246   0.45178  -0.0882020000
C          C       0.50013   0.66761   0.53448  -0.0951230000
C          C       0.50003   0.85748   0.45195  -0.0887520000
C          C       0.49999   0.83231   0.53467  -0.0955240000
C          C       0.75009   0.60755   0.61847  -0.0882920000
C          C       0.74994   0.58239   0.36786  -0.0955350000
C          C       0.60742   0.49996   0.36857  -0.0890540000
C          C       0.58226   0.50016   0.45127  -0.0953010000
C          C       0.64256   0.74999   0.53541  -0.0892490000
C          C       0.66777   0.74994   0.61809  -0.0962070000
C          C       0.50001   0.89171   0.63136  -0.0862680000
C          C       0.50002   0.91690   0.54872  -0.0936720000
C          C       0.74995   0.64168   0.46484  -0.0877010000
C          C       0.75007   0.66686   0.38217  -0.0934630000
C          C       0.75004   0.85830   0.46463  -0.0873230000
C          C       0.75006   0.83312   0.38202  -0.0944820000
C          C       0.50014   0.60834   0.63141  -0.0880500000
C          C       0.49999   0.58313   0.54879  -0.0941470000
C          C       0.64173   0.49998   0.54796  -0.0874740000
C          C       0.66687   0.49999   0.46535  -0.0939850000
C          C       0.60827   0.75000   0.38131  -0.0861010000
C          C       0.58312   0.74996   0.63200  -0.0945060000
C          C       0.89171   0.75003   0.38146  -0.0873980000
C          C       0.91685   0.74995   0.63215  -0.0939530000
C          C       0.85828   0.49993   0.54819  -0.0878980000
C          C       0.83313   0.49999   0.46557  -0.0936280000
C          C       0.85746   0.74998   0.53533  -0.0883670000
C          C       0.83223   0.75008   0.61804  -0.0961200000
C          C       0.89256   0.50001   0.36886  -0.0883070000
C          C       0.91779   0.49996   0.45150  -0.0975000000
H          H       0.70008   0.91739   0.36205   0.1202090000
H          H       0.95020   0.66721   0.52872   0.1201090000
H          H       0.54987   0.83277   0.52876   0.1203700000
H          H       0.79983   0.58277   0.36210   0.1203920000
H          H       0.58266   0.95029   0.44556   0.1196960000
H          H       0.83271   0.70021   0.61222   0.1201010000
H          H       0.66740   0.79980   0.61214   0.1200110000
H          H       0.91753   0.54983   0.44554   0.1205180000
H          H       0.54984   0.91666   0.55458   0.1192860000
H          H       0.79992   0.66651   0.38826   0.1190990000
H          H       0.70020   0.83336   0.38792   0.1186730000
H          H       0.95015   0.58349   0.55489   0.1182700000
H          H       0.66668   0.95017   0.47122   0.1193840000
H          H       0.91660   0.70011   0.63816   0.1192760000
H          H       0.58336   0.79979   0.63785   0.1185630000
H          H       0.83350   0.54985   0.47162   0.1182740000
H          H       0.79989   0.83331   0.38795   0.1188100000
H          H       0.54987   0.58320   0.55466   0.1192670000
H          H       0.95017   0.91666   0.55466   0.1189060000
H          H       0.70021   0.66672   0.38806   0.1187360000
H          H       0.91666   0.79978   0.63802   0.1183790000
H          H       0.66669   0.54983   0.47132   0.1190870000
H          H       0.83333   0.95013   0.47143   0.1195430000
H          H       0.58333   0.70014   0.63796   0.1190580000
H          H       0.95008   0.83259   0.52847   0.1198410000
H          H       0.70005   0.58265   0.36150   0.1197130000
H          H       0.79987   0.91734   0.36224   0.1197440000
H          H       0.55000   0.66731   0.52812   0.1197740000
H          H       0.83264   0.79994   0.61184   0.1197560000
H          H       0.58261   0.55002   0.44497   0.1199240000
H          H       0.91724   0.95010   0.44559   0.1198240000
H          H       0.66738   0.70005   0.61202   0.1201000000
H          H       0.75006   0.88294   0.58675   0.1358870000
H          H       0.75013   0.67607   0.34992   0.1151480000
H          H       0.49979   0.63274   0.41979   0.1352810000
H          H       0.49999   0.92608   0.51644   0.1153270000
H          H       0.50005   0.86719   0.41997   0.1357570000
H          H       0.49992   0.57388   0.51656   0.1153360000
H          H       0.75022   0.61730   0.58650   0.1355320000
H          H       0.75005   0.82390   0.34976   0.1155790000
H          H       0.61710   0.49988   0.33655   0.1354700000
H          H       0.82400   0.50004   0.43327   0.1150210000
H          H       0.63289   0.75000   0.50340   0.1361410000
H          H       0.92600   0.74993   0.59986   0.1153410000
H          H       0.50005   0.88199   0.66337   0.1351790000
H          H       0.50021   0.67679   0.56676   0.1139900000
H          H       0.74990   0.63196   0.49683   0.1360890000
H          H       0.74994   0.92701   0.40041   0.1146190000
H          H       0.75006   0.86801   0.49663   0.1349730000
H          H       0.74983   0.57322   0.40015   0.1144290000
H          H       0.50028   0.61806   0.66340   0.1355070000
H          H       0.49992   0.82317   0.56696   0.1141260000
H          H       0.63199   0.50000   0.57995   0.1353490000
H          H       0.92702   0.49993   0.48376   0.1148350000
H          H       0.61798   0.74998   0.41332   0.1353000000
H          H       0.82294   0.75016   0.65027   0.1142810000
H          H       0.88199   0.75003   0.41346   0.1355670000
H          H       0.67702   0.74990   0.65035   0.1143690000
H          H       0.86798   0.49990   0.58019   0.1359610000
H          H       0.57304   0.50028   0.48353   0.1141690000
H          H       0.86711   0.74992   0.50328   0.1357650000
H          H       0.57395   0.74994   0.59972   0.1156980000
H          H       0.88293   0.50004   0.33682   0.1352930000
H          H       0.67605   0.50001   0.43308   0.1153400000
H          H       0.62690   0.64133   0.65449   0.4207060000
H          H       0.62320   0.60861   0.48787   0.4201710000
H          H       0.85863   0.87691   0.40462   0.4206170000
H          H       0.89148   0.87312   0.57133   0.4205560000
H          H       0.60861   0.62694   0.57121   0.4206370000
H          H       0.64141   0.62301   0.40455   0.4205650000
H          H       0.87683   0.89136   0.48800   0.4205590000
H          H       0.87322   0.85862   0.65461   0.4208970000
H          H       0.85863   0.62372   0.40404   0.4190370000
H          H       0.89129   0.62642   0.57065   0.4190580000
H          H       0.62676   0.85852   0.65463   0.4200050000
H          H       0.62325   0.89139   0.48786   0.4199280000
H          H       0.87654   0.60878   0.48734   0.4204420000
H          H       0.87350   0.64116   0.65355   0.4193210000
H          H       0.60857   0.87322   0.57126   0.4204120000
H          H       0.64144   0.87682   0.40454   0.4199560000
Al         Al      0.15871   0.37477   0.87601   1.6687390000
Al         Al      0.40856   0.12480   0.70924   1.6690690000
Al         Al      0.09131   0.37520   0.70932   1.6669260000
Al         Al      0.34136   0.12518   0.87593   1.6688980000
Al         Al      0.12521   0.40862   0.95935   1.6670280000
Al         Al      0.37519   0.15870   0.79263   1.6676000000
Al         Al      0.12481   0.34132   0.79265   1.6669940000
Al         Al      0.37482   0.09127   0.95926   1.6670760000
Al         Al      0.34141   0.37475   0.87609   1.6692860000
Al         Al      0.09140   0.12476   0.70920   1.6685240000
Al         Al      0.40865   0.37522   0.70930   1.6686270000
Al         Al      0.15864   0.12524   0.87590   1.6681980000
Al         Al      0.37522   0.34137   0.79270   1.6683200000
Al         Al      0.12523   0.09130   0.95916   1.6690010000
Al         Al      0.37483   0.40869   0.95934   1.6694390000
Al         Al      0.12479   0.15865   0.79251   1.6699000000
O          O       0.19089   0.37826   0.91707  -0.5828060000
O          O       0.16886   0.40951   0.96667  -0.5950320000
O          O       0.44086   0.12829   0.75018  -0.5829000000
O          O       0.41888   0.15966   0.79968  -0.5960860000
O          O       0.05910   0.37173   0.75027  -0.5830590000
O          O       0.08113   0.34042   0.79982  -0.5953120000
O          O       0.30913   0.12164   0.91679  -0.5837320000
O          O       0.33110   0.09033   0.96639  -0.5954300000
O          O       0.12170   0.44090   0.66693  -0.5829420000
O          O       0.09039   0.41890   0.71648  -0.5947820000
O          O       0.37165   0.19090   0.83364  -0.5836360000
O          O       0.34033   0.16888   0.88317  -0.5947660000
O          O       0.12830   0.30908   0.83363  -0.5828830000
O          O       0.15958   0.33110   0.88322  -0.5954390000
O          O       0.37831   0.05905   0.66697  -0.5830900000
O          O       0.40950   0.08112   0.71659  -0.5945280000
O          O       0.05903   0.37823   0.66707  -0.5860700000
O          O       0.08128   0.40887   0.95002  -0.6145320000
O          O       0.30901   0.12814   0.83386  -0.5869190000
O          O       0.33127   0.15854   0.78328  -0.6162470000
O          O       0.19095   0.37169   0.83374  -0.5862910000
O          O       0.16879   0.34093   0.78339  -0.6143470000
O          O       0.44096   0.12173   0.66725  -0.5875700000
O          O       0.41876   0.09141   0.94987  -0.6165980000
O          O       0.12832   0.44088   0.91697  -0.5869600000
O          O       0.15928   0.41876   0.86680  -0.6153180000
O          O       0.37810   0.19104   0.75049  -0.5879490000
O          O       0.40832   0.16868   0.69984  -0.6163800000
O          O       0.12175   0.30907   0.75031  -0.5854420000
O          O       0.09092   0.33124   0.70005  -0.6148900000
O          O       0.37196   0.05896   0.91715  -0.5871150000
O          O       0.34169   0.08129   0.86656  -0.6165490000
O          O       0.30912   0.37172   0.83376  -0.5864010000
O          O       0.33126   0.34099   0.78335  -0.6139950000
O          O       0.05920   0.12178   0.66686  -0.5868170000
O          O       0.08128   0.09083   0.95001  -0.6146060000
O          O       0.44090   0.37822   0.66699  -0.5858720000
O          O       0.41879   0.40909   0.95007  -0.6148710000
O          O       0.19090   0.12826   0.83373  -0.5866700000
O          O       0.16873   0.15890   0.78329  -0.6155270000
O          O       0.37829   0.30908   0.75046  -0.5861620000
O          O       0.40881   0.33130   0.69993  -0.6155580000
O          O       0.12817   0.05905   0.91691  -0.5862200000
O          O       0.15890   0.08127   0.86663  -0.6153980000
O          O       0.37176   0.44100   0.91725  -0.5872000000
O          O       0.34146   0.41863   0.86665  -0.6158390000
O          O       0.12186   0.19093   0.75029  -0.5872450000
O          O       0.09119   0.16870   0.69994  -0.6156240000
O          O       0.44086   0.37161   0.75026  -0.5840900000
O          O       0.41887   0.34053   0.80006  -0.5941500000
O          O       0.19097   0.12179   0.91667  -0.5830560000
O          O       0.16895   0.09023   0.96586  -0.5970740000
O          O       0.30910   0.37827   0.91698  -0.5830900000
O          O       0.33113   0.40961   0.96647  -0.5954310000
O          O       0.05906   0.12821   0.74998  -0.5831110000
O          O       0.08107   0.15974   0.79923  -0.5970070000
O          O       0.37163   0.30916   0.83364  -0.5830840000
O          O       0.34053   0.33115   0.88341  -0.5953910000
O          O       0.12172   0.05913   0.66685  -0.5836980000
O          O       0.09051   0.08110   0.71657  -0.5949050000
O          O       0.37832   0.44091   0.66700  -0.5831250000
O          O       0.40964   0.41889   0.71653  -0.5954420000
O          O       0.12828   0.19088   0.83358  -0.5834960000
O          O       0.15956   0.16889   0.88318  -0.5952110000
O          O       0.12820   0.37675   0.91882  -1.0042560000
O          O       0.37816   0.12678   0.75207  -1.0029910000
O          O       0.12183   0.37325   0.75216  -1.0035100000
O          O       0.37181   0.12326   0.91876  -1.0027590000
O          O       0.12323   0.37814   0.66886  -1.0032290000
O          O       0.37326   0.12824   0.83541  -1.0041690000
O          O       0.12679   0.37181   0.83551  -1.0036500000
O          O       0.37669   0.12180   0.66863  -1.0030410000
O          O       0.37322   0.37175   0.83554  -1.0051450000
O          O       0.12331   0.12174   0.66875  -1.0051060000
O          O       0.37676   0.37823   0.66883  -1.0051120000
O          O       0.12671   0.12823   0.83543  -1.0044120000
O          O       0.37822   0.37324   0.75218  -1.0050010000
O          O       0.12819   0.12326   0.91878  -1.0045480000
O          O       0.37188   0.37681   0.91888  -1.0047440000
O          O       0.12182   0.12674   0.75210  -1.0047140000
C          C       0.19182   0.39524   0.95039   0.6305430000
C          C       0.22204   0.39948   0.97253  -0.0598710000
C          C       0.22216   0.41205   0.68052  -0.0735220000
C          C       0.44180   0.14528   0.78348   0.6316710000
C          C       0.47201   0.14939   0.80566  -0.0597760000
C          C       0.47222   0.16190   0.84702  -0.0738140000
C          C       0.05819   0.35473   0.78358   0.6314610000
C          C       0.02798   0.35056   0.80573  -0.0598300000
C          C       0.02784   0.33804   0.84709  -0.0739700000
C          C       0.30820   0.10470   0.95014   0.6317840000
C          C       0.27801   0.10063   0.97235  -0.0602490000
C          C       0.27783   0.08811   0.68037  -0.0737000000
C          C       0.10470   0.44183   0.70026   0.6303780000
C          C       0.10052   0.47204   0.72243  -0.0587270000
C          C       0.08799   0.47227   0.76380  -0.0742770000
C          C       0.35465   0.19181   0.86698   0.6312100000
C          C       0.35052   0.22203   0.88915  -0.0598620000
C          C       0.33799   0.22222   0.93051  -0.0740590000
C          C       0.14529   0.30816   0.86696   0.6313030000
C          C       0.14950   0.27795   0.88916  -0.0603510000
C          C       0.16207   0.27778   0.93050  -0.0735620000
C          C       0.39523   0.05815   0.70037   0.6298460000
C          C       0.39943   0.02798   0.72263  -0.0593450000
C          C       0.41209   0.02782   0.76391  -0.0741950000
C          C       0.05823   0.39472   0.96673   0.6242610000
C          C       0.02803   0.39868   0.94433  -0.0579070000
C          C       0.02787   0.41122   0.90298  -0.0757230000
C          C       0.30819   0.14456   0.80014   0.6262980000
C          C       0.27798   0.14862   0.77784  -0.0576670000
C          C       0.27788   0.16115   0.73651  -0.0753160000
C          C       0.19180   0.35517   0.80008   0.6241420000
C          C       0.22203   0.35130   0.77764  -0.0571500000
C          C       0.22219   0.33876   0.73628  -0.0756360000
C          C       0.44183   0.10537   0.96680   0.6271360000
C          C       0.47208   0.10138   0.94449  -0.0576370000
C          C       0.47219   0.08886   0.90314  -0.0743110000
C          C       0.14494   0.44173   0.88339   0.6254500000
C          C       0.14877   0.47196   0.86098  -0.0567010000
C          C       0.16126   0.47214   0.81961  -0.0764260000
C          C       0.39447   0.19181   0.71670   0.6273480000
C          C       0.39860   0.22202   0.69442  -0.0577760000
C          C       0.41117   0.22212   0.98643  -0.0752880000
C          C       0.10519   0.30823   0.71669   0.6239280000
C          C       0.10127   0.27800   0.69429  -0.0577030000
C          C       0.08876   0.27782   0.98625  -0.0752410000
C          C       0.35554   0.05817   0.88341   0.6268830000
C          C       0.35139   0.02794   0.86118  -0.0577190000
C          C       0.33883   0.02781   0.81987  -0.0744650000
C          C       0.30828   0.35524   0.80007   0.6234420000
C          C       0.27807   0.35134   0.77763  -0.0570310000
C          C       0.27791   0.33878   0.73630  -0.0747230000
C          C       0.05833   0.10519   0.96662   0.6241740000
C          C       0.02810   0.10131   0.94429  -0.0569880000
C          C       0.02788   0.08871   0.90299  -0.0751410000
C          C       0.44178   0.39480   0.96672   0.6237640000
C          C       0.47201   0.39870   0.94434  -0.0574560000
C          C       0.47217   0.41123   0.90299  -0.0756800000
C          C       0.19175   0.14475   0.80005   0.6250960000
C          C       0.22198   0.14868   0.77773  -0.0574180000
C          C       0.22220   0.16122   0.73638  -0.0753140000
C          C       0.39473   0.30825   0.71675   0.6253400000
C          C       0.39873   0.27802   0.69443  -0.0579090000
C          C       0.41126   0.27781   0.98641  -0.0747670000
C          C       0.14471   0.05822   0.88329   0.6250550000
C          C       0.14869   0.02799   0.86094  -0.0570780000
C          C       0.16124   0.02783   0.81962  -0.0764600000
C          C       0.35536   0.44174   0.88348   0.6263820000
C          C       0.35129   0.47194   0.86113  -0.0575820000
C          C       0.33875   0.47212   0.81979  -0.0760130000
C          C       0.10533   0.19175   0.71665   0.6260620000
C          C       0.10131   0.22198   0.69430  -0.0582140000
C          C       0.08876   0.22213   0.98630  -0.0755550000
C          C       0.44182   0.35472   0.78367   0.6310040000
C          C       0.47206   0.35051   0.80570  -0.0601900000
C          C       0.47216   0.33795   0.84700  -0.0737260000
C          C       0.19190   0.10466   0.94982   0.6329550000
C          C       0.22207   0.10053   0.97206  -0.0607660000
C          C       0.22215   0.08801   0.68006  -0.0735770000
C          C       0.30818   0.39529   0.95028   0.6310300000
C          C       0.27800   0.39949   0.97253  -0.0597040000
C          C       0.27785   0.41203   0.68056  -0.0729360000
C          C       0.05814   0.14533   0.78314   0.6329320000
C          C       0.02795   0.14946   0.80535  -0.0606730000
C          C       0.02791   0.16197   0.84669  -0.0740050000
C          C       0.35476   0.30821   0.86704   0.6311600000
C          C       0.35057   0.27796   0.88907  -0.0607590000
C          C       0.33798   0.27786   0.93037  -0.0730990000
C          C       0.10472   0.05817   0.70016   0.6313620000
C          C       0.10047   0.02796   0.72221  -0.0607970000
C          C       0.08793   0.02793   0.76353  -0.0733640000
C          C       0.39533   0.44184   0.70030   0.6309180000
C          C       0.39951   0.47202   0.72253  -0.0609550000
C          C       0.41202   0.47213   0.76390  -0.0722980000
C          C       0.14526   0.19183   0.86692   0.6309830000
C          C       0.14947   0.22201   0.88913  -0.0599930000
C          C       0.16205   0.22211   0.93045  -0.0736190000
C          C       0.25002   0.39258   0.95212  -0.0895430000
C          C       0.24999   0.41778   0.70147  -0.0971000000
C          C      -0.00007   0.14247   0.78511  -0.0882020000
C          C       0.00013   0.16761   0.86781  -0.0951230000
C          C       0.00003   0.35747   0.78529  -0.0887520000
C          C      -0.00002   0.33231   0.86800  -0.0955240000
C          C       0.25009   0.10755   0.95180  -0.0882920000
C          C       0.24993   0.08239   0.70119  -0.0955350000
C          C       0.10742  -0.00003   0.70190  -0.0890540000
C          C       0.08226   0.00015   0.78461  -0.0953010000
C          C       0.14256   0.24999   0.86874  -0.0892490000
C          C       0.16777   0.24993   0.95143  -0.0962070000
C          C       0.00002   0.39171   0.96470  -0.0862680000
C          C       0.00002   0.41690   0.88206  -0.0936720000
C          C       0.24995   0.14168   0.79817  -0.0877010000
C          C       0.25007   0.16686   0.71551  -0.0934630000
C          C       0.25005   0.35830   0.79796  -0.0873230000
C          C       0.25005   0.33312   0.71536  -0.0944820000
C          C       0.00014   0.10834   0.96474  -0.0880500000
C          C      -0.00000   0.08314   0.88213  -0.0941470000
C          C       0.14173  -0.00003   0.88129  -0.0874740000
C          C       0.16686  -0.00001   0.79868  -0.0939850000
C          C       0.10826   0.24999   0.71465  -0.0861010000
C          C       0.08312   0.24996   0.96534  -0.0945060000
C          C       0.39170   0.25002   0.71479  -0.0873980000
C          C       0.41685   0.24995   0.96548  -0.0939530000
C          C       0.35829  -0.00007   0.88152  -0.0878980000
C          C       0.33313  -0.00001   0.79890  -0.0936280000
C          C       0.35746   0.24998   0.86866  -0.0883670000
C          C       0.33224   0.25007   0.95138  -0.0961200000
C          C       0.39256   0.00001   0.70219  -0.0883070000
C          C       0.41778  -0.00003   0.78483  -0.0975000000
H          H       0.20008   0.41739   0.69538   0.1202090000
H          H       0.45020   0.16721   0.86206   0.1201090000
H          H       0.04987   0.33277   0.86210   0.1203700000
H          H       0.29984   0.08277   0.69543   0.1203920000
H          H       0.08267   0.45028   0.77890   0.1196960000
H          H       0.33271   0.20021   0.94555   0.1201010000
H          H       0.16740   0.29980   0.94547   0.1200110000
H          H       0.41753   0.04982   0.77887   0.1205180000
H          H       0.04984   0.41666   0.88792   0.1192860000
H          H       0.29992   0.16651   0.72159   0.1190990000
H          H       0.20019   0.33336   0.72125   0.1186730000
H          H       0.45015   0.08349   0.88822   0.1182700000
H          H       0.16668   0.45017   0.80456   0.1193840000
H          H       0.41659   0.20011   0.97150   0.1192760000
H          H       0.08336   0.29979   0.97118   0.1185630000
H          H       0.33350   0.04985   0.80496   0.1182740000
H          H       0.29989   0.33331   0.72128   0.1188100000
H          H       0.04987   0.08320   0.88799   0.1192670000
H          H       0.45017   0.41666   0.88799   0.1189060000
H          H       0.20021   0.16672   0.72139   0.1187360000
H          H       0.41665   0.29978   0.97135   0.1183790000
H          H       0.16669   0.04983   0.80466   0.1190870000
H          H       0.33333   0.45013   0.80476   0.1195430000
H          H       0.08333   0.20014   0.97129   0.1190580000
H          H       0.45008   0.33258   0.86180   0.1198410000
H          H       0.20005   0.08265   0.69483   0.1197130000
H          H       0.29988   0.41733   0.69557   0.1197440000
H          H       0.05000   0.16731   0.86146   0.1197740000
H          H       0.33264   0.29994   0.94517   0.1197560000
H          H       0.08261   0.05002   0.77831   0.1199240000
H          H       0.41724   0.45009   0.77893   0.1198240000
H          H       0.16737   0.20005   0.94535   0.1201000000
H          H       0.25006   0.38294   0.92008   0.1358870000
H          H       0.25013   0.17608   0.68325   0.1151480000
H          H      -0.00020   0.13274   0.75313   0.1352810000
H          H      -0.00001   0.42608   0.84978   0.1153270000
H          H       0.00005   0.36719   0.75330   0.1357570000
H          H      -0.00008   0.07388   0.84990   0.1153360000
H          H       0.25022   0.11730   0.91983   0.1355320000
H          H       0.25005   0.32390   0.68310   0.1155790000
H          H       0.11710  -0.00012   0.66988   0.1354700000
H          H       0.32399   0.00003   0.76660   0.1150210000
H          H       0.13288   0.25000   0.83673   0.1361410000
H          H       0.42601   0.24993   0.93319   0.1153410000
H          H       0.00005   0.38199   0.99670   0.1351790000
H          H       0.00021   0.17679   0.90009   0.1139900000
H          H       0.24990   0.13196   0.83017   0.1360890000
H          H       0.24995   0.42701   0.73374   0.1146190000
H          H       0.25006   0.36801   0.82996   0.1349730000
H          H       0.24983   0.07322   0.73348   0.1144290000
H          H       0.00028   0.11807   0.99673   0.1355070000
H          H      -0.00007   0.32317   0.90029   0.1141260000
H          H       0.13198   0.00000   0.91328   0.1353490000
H          H       0.42702  -0.00007   0.81709   0.1148350000
H          H       0.11798   0.24998   0.74665   0.1353000000
H          H       0.32294   0.25016   0.98360   0.1142810000
H          H       0.38199   0.25002   0.74679   0.1355670000
H          H       0.17702   0.24990   0.98368   0.1143690000
H          H       0.36798  -0.00010   0.91353   0.1359610000
H          H       0.07304   0.00027   0.81687   0.1141690000
H          H       0.36711   0.24992   0.83662   0.1357650000
H          H       0.07395   0.24995   0.93305   0.1156980000
H          H       0.38293   0.00005   0.67015   0.1352930000
H          H       0.17605   0.00001   0.76641   0.1153400000
H          H       0.12690   0.14133   0.98782   0.4207060000
H          H       0.12320   0.10861   0.82120   0.4201710000
H          H       0.35864   0.37691   0.73795   0.4206170000
H          H       0.39147   0.37312   0.90466   0.4205560000
H          H       0.10860   0.12695   0.90454   0.4206370000
H          H       0.14142   0.12301   0.73789   0.4205650000
H          H       0.37682   0.39136   0.82134   0.4205590000
H          H       0.37322   0.35862   0.98795   0.4208970000
H          H       0.35863   0.12372   0.73737   0.4190370000
H          H       0.39129   0.12641   0.90398   0.4190580000
H          H       0.12676   0.35852   0.98796   0.4200050000
H          H       0.12325   0.39139   0.82119   0.4199280000
H          H       0.37654   0.10878   0.82067   0.4204420000
H          H       0.37350   0.14117   0.98688   0.4193210000
H          H       0.10857   0.37322   0.90460   0.4204120000
H          H       0.14144   0.37682   0.73787   0.4199560000
Al         Al      0.65871   0.37477   0.87601   1.6687390000
Al         Al      0.90856   0.12480   0.70924   1.6690690000
Al         Al      0.59131   0.37520   0.70932   1.6669260000
Al         Al      0.84136   0.12518   0.87593   1.6688980000
Al         Al      0.62521   0.40862   0.95935   1.6670280000
Al         Al      0.87519   0.15870   0.79263   1.6676000000
Al         Al      0.62481   0.34132   0.79265   1.6669940000
Al         Al      0.87482   0.09127   0.95926   1.6670760000
Al         Al      0.84141   0.37475   0.87609   1.6692860000
Al         Al      0.59140   0.12476   0.70920   1.6685240000
Al         Al      0.90865   0.37522   0.70930   1.6686270000
Al         Al      0.65864   0.12524   0.87590   1.6681980000
Al         Al      0.87522   0.34137   0.79270   1.6683200000
Al         Al      0.62523   0.09130   0.95916   1.6690010000
Al         Al      0.87483   0.40869   0.95934   1.6694390000
Al         Al      0.62479   0.15865   0.79251   1.6699000000
O          O       0.69089   0.37826   0.91707  -0.5828060000
O          O       0.66887   0.40951   0.96667  -0.5950320000
O          O       0.94086   0.12829   0.75018  -0.5829000000
O          O       0.91889   0.15966   0.79968  -0.5960860000
O          O       0.55910   0.37173   0.75027  -0.5830590000
O          O       0.58113   0.34042   0.79982  -0.5953120000
O          O       0.80914   0.12164   0.91679  -0.5837320000
O          O       0.83110   0.09033   0.96639  -0.5954300000
O          O       0.62171   0.44090   0.66693  -0.5829420000
O          O       0.59039   0.41890   0.71648  -0.5947820000
O          O       0.87165   0.19090   0.83364  -0.5836360000
O          O       0.84034   0.16888   0.88317  -0.5947660000
O          O       0.62831   0.30908   0.83363  -0.5828830000
O          O       0.65958   0.33110   0.88322  -0.5954390000
O          O       0.87832   0.05905   0.66697  -0.5830900000
O          O       0.90951   0.08112   0.71659  -0.5945280000
O          O       0.55904   0.37823   0.66707  -0.5860700000
O          O       0.58128   0.40887   0.95002  -0.6145320000
O          O       0.80901   0.12814   0.83386  -0.5869190000
O          O       0.83127   0.15854   0.78328  -0.6162470000
O          O       0.69095   0.37169   0.83374  -0.5862910000
O          O       0.66879   0.34093   0.78339  -0.6143470000
O          O       0.94096   0.12173   0.66725  -0.5875700000
O          O       0.91876   0.09141   0.94987  -0.6165980000
O          O       0.62833   0.44088   0.91697  -0.5869600000
O          O       0.65929   0.41876   0.86680  -0.6153180000
O          O       0.87810   0.19104   0.75049  -0.5879490000
O          O       0.90832   0.16868   0.69984  -0.6163800000
O          O       0.62175   0.30907   0.75031  -0.5854420000
O          O       0.59092   0.33124   0.70005  -0.6148900000
O          O       0.87196   0.05896   0.91715  -0.5871150000
O          O       0.84169   0.08129   0.86656  -0.6165490000
O          O       0.80912   0.37172   0.83376  -0.5864010000
O          O       0.83127   0.34099   0.78335  -0.6139950000
O          O       0.55919   0.12178   0.66686  -0.5868170000
O          O       0.58129   0.09083   0.95001  -0.6146060000
O          O       0.94091   0.37822   0.66699  -0.5858720000
O          O       0.91879   0.40909   0.95007  -0.6148710000
O          O       0.69090   0.12826   0.83373  -0.5866700000
O          O       0.66873   0.15890   0.78329  -0.6155270000
O          O       0.87830   0.30908   0.75046  -0.5861620000
O          O       0.90881   0.33130   0.69993  -0.6155580000
O          O       0.62817   0.05905   0.91691  -0.5862200000
O          O       0.65890   0.08127   0.86663  -0.6153980000
O          O       0.87176   0.44100   0.91725  -0.5872000000
O          O       0.84146   0.41863   0.86665  -0.6158390000
O          O       0.62186   0.19093   0.75029  -0.5872450000
O          O       0.59120   0.16870   0.69994  -0.6156240000
O          O       0.94086   0.37161   0.75026  -0.5840900000
O          O       0.91887   0.34053   0.80006  -0.5941500000
O          O       0.69097   0.12179   0.91667  -0.5830560000
O          O       0.66895   0.09023   0.96586  -0.5970740000
O          O       0.80910   0.37827   0.91698  -0.5830900000
O          O       0.83113   0.40961   0.96647  -0.5954310000
O          O       0.55906   0.12821   0.74998  -0.5831110000
O          O       0.58108   0.15974   0.79923  -0.5970070000
O          O       0.87163   0.30916   0.83364  -0.5830840000
O          O       0.84054   0.33115   0.88341  -0.5953910000
O          O       0.62172   0.05913   0.66685  -0.5836980000
O          O       0.59051   0.08110   0.71657  -0.5949050000
O          O       0.87832   0.44091   0.66700  -0.5831250000
O          O       0.90964   0.41889   0.71653  -0.5954420000
O          O       0.62828   0.19088   0.83358  -0.5834960000
O          O       0.65956   0.16889   0.88318  -0.5952110000
O          O       0.62820   0.37675   0.91882  -1.0042560000
O          O       0.87816   0.12678   0.75207  -1.0029910000
O          O       0.62184   0.37325   0.75216  -1.0035100000
O          O       0.87181   0.12326   0.91876  -1.0027590000
O          O       0.62323   0.37814   0.66886  -1.0032290000
O          O       0.87326   0.12824   0.83541  -1.0041690000
O          O       0.62679   0.37181   0.83551  -1.0036500000
O          O       0.87669   0.12180   0.66863  -1.0030410000
O          O       0.87322   0.37175   0.83554  -1.0051450000
O          O       0.62331   0.12174   0.66875  -1.0051060000
O          O       0.87676   0.37823   0.66883  -1.0051120000
O          O       0.62671   0.12823   0.83543  -1.0044120000
O          O       0.87823   0.37324   0.75218  -1.0050010000
O          O       0.62819   0.12326   0.91878  -1.0045480000
O          O       0.87188   0.37681   0.91888  -1.0047440000
O          O       0.62183   0.12674   0.75210  -1.0047140000
C          C       0.69182   0.39524   0.95039   0.6305430000
C          C       0.72204   0.39948   0.97253  -0.0598710000
C          C       0.72215   0.41205   0.68052  -0.0735220000
C          C       0.94181   0.14528   0.78348   0.6316710000
C          C       0.97201   0.14939   0.80566  -0.0597760000
C          C       0.97222   0.16190   0.84702  -0.0738140000
C          C       0.55819   0.35473   0.78358   0.6314610000
C          C       0.52799   0.35056   0.80573  -0.0598300000
C          C       0.52784   0.33804   0.84709  -0.0739700000
C          C       0.80820   0.10470   0.95014   0.6317840000
C          C       0.77800   0.10063   0.97235  -0.0602490000
C          C       0.77783   0.08811   0.68037  -0.0737000000
C          C       0.60471   0.44183   0.70026   0.6303780000
C          C       0.60052   0.47204   0.72243  -0.0587270000
C          C       0.58799   0.47227   0.76380  -0.0742770000
C          C       0.85465   0.19181   0.86698   0.6312100000
C          C       0.85052   0.22203   0.88915  -0.0598620000
C          C       0.83799   0.22222   0.93051  -0.0740590000
C          C       0.64529   0.30816   0.86696   0.6313030000
C          C       0.64950   0.27795   0.88916  -0.0603510000
C          C       0.66207   0.27778   0.93050  -0.0735620000
C          C       0.89523   0.05815   0.70037   0.6298460000
C          C       0.89943   0.02798   0.72263  -0.0593450000
C          C       0.91209   0.02782   0.76391  -0.0741950000
C          C       0.55823   0.39472   0.96673   0.6242610000
C          C       0.52802   0.39868   0.94433  -0.0579070000
C          C       0.52787   0.41122   0.90298  -0.0757230000
C          C       0.80819   0.14456   0.80014   0.6262980000
C          C       0.77798   0.14862   0.77784  -0.0576670000
C          C       0.77788   0.16115   0.73651  -0.0753160000
C          C       0.69180   0.35517   0.80008   0.6241420000
C          C       0.72203   0.35130   0.77764  -0.0571500000
C          C       0.72219   0.33876   0.73628  -0.0756360000
C          C       0.94183   0.10537   0.96680   0.6271360000
C          C       0.97208   0.10138   0.94449  -0.0576370000
C          C       0.97219   0.08886   0.90314  -0.0743110000
C          C       0.64494   0.44173   0.88339   0.6254500000
C          C       0.64877   0.47196   0.86098  -0.0567010000
C          C       0.66126   0.47214   0.81961  -0.0764260000
C          C       0.89447   0.19181   0.71670   0.6273480000
C          C       0.89860   0.22202   0.69442  -0.0577760000
C          C       0.91118   0.22212   0.98643  -0.0752880000
C          C       0.60519   0.30823   0.71669   0.6239280000
C          C       0.60127   0.27800   0.69429  -0.0577030000
C          C       0.58876   0.27782   0.98625  -0.0752410000
C          C       0.85554   0.05817   0.88341   0.6268830000
C          C       0.85139   0.02794   0.86118  -0.0577190000
C          C       0.83883   0.02781   0.81987  -0.0744650000
C          C       0.80828   0.35524   0.80007   0.6234420000
C          C       0.77807   0.35134   0.77763  -0.0570310000
C          C       0.77791   0.33878   0.73630  -0.0747230000
C          C       0.55833   0.10519   0.96662   0.6241740000
C          C       0.52810   0.10131   0.94429  -0.0569880000
C          C       0.52789   0.08871   0.90299  -0.0751410000
C          C       0.94178   0.39480   0.96672   0.6237640000
C          C       0.97201   0.39870   0.94434  -0.0574560000
C          C       0.97217   0.41123   0.90299  -0.0756800000
C          C       0.69175   0.14475   0.80005   0.6250960000
C          C       0.72198   0.14868   0.77773  -0.0574180000
C          C       0.72220   0.16122   0.73638  -0.0753140000
C          C       0.89473   0.30825   0.71675   0.6253400000
C          C       0.89874   0.27802   0.69443  -0.0579090000
C          C       0.91126   0.27781   0.98641  -0.0747670000
C          C       0.64470   0.05822   0.88329   0.6250550000
C          C       0.64869   0.02799   0.86094  -0.0570780000
C          C       0.66124   0.02783   0.81962  -0.0764600000
C          C       0.85537   0.44174   0.88348   0.6263820000
C          C       0.85129   0.47194   0.86113  -0.0575820000
C          C       0.83875   0.47212   0.81979  -0.0760130000
C          C       0.60533   0.19175   0.71665   0.6260620000
C          C       0.60131   0.22198   0.69430  -0.0582140000
C          C       0.58876   0.22213   0.98630  -0.0755550000
C          C       0.94182   0.35472   0.78367   0.6310040000
C          C       0.97206   0.35051   0.80570  -0.0601900000
C          C       0.97216   0.33795   0.84700  -0.0737260000
C          C       0.69190   0.10466   0.94982   0.6329550000
C          C       0.72207   0.10053   0.97206  -0.0607660000
C          C       0.72215   0.08801   0.68006  -0.0735770000
C          C       0.80818   0.39529   0.95028   0.6310300000
C          C       0.77799   0.39949   0.97253  -0.0597040000
C          C       0.77785   0.41203   0.68056  -0.0729360000
C          C       0.55814   0.14533   0.78314   0.6329320000
C          C       0.52795   0.14946   0.80535  -0.0606730000
C          C       0.52791   0.16197   0.84669  -0.0740050000
C          C       0.85476   0.30821   0.86704   0.6311600000
C          C       0.85056   0.27796   0.88907  -0.0607590000
C          C       0.83798   0.27786   0.93037  -0.0730990000
C          C       0.60472   0.05817   0.70016   0.6313620000
C          C       0.60047   0.02796   0.72221  -0.0607970000
C          C       0.58793   0.02793   0.76353  -0.0733640000
C          C       0.89533   0.44184   0.70030   0.6309180000
C          C       0.89952   0.47202   0.72253  -0.0609550000
C          C       0.91202   0.47213   0.76390  -0.0722980000
C          C       0.64526   0.19183   0.86692   0.6309830000
C          C       0.64947   0.22201   0.88913  -0.0599930000
C          C       0.66205   0.22211   0.93045  -0.0736190000
C          C       0.75002   0.39258   0.95212  -0.0895430000
C          C       0.74999   0.41778   0.70147  -0.0971000000
C          C       0.49993   0.14247   0.78511  -0.0882020000
C          C       0.50013   0.16761   0.86781  -0.0951230000
C          C       0.50003   0.35747   0.78529  -0.0887520000
C          C       0.49999   0.33231   0.86800  -0.0955240000
C          C       0.75009   0.10755   0.95180  -0.0882920000
C          C       0.74994   0.08239   0.70119  -0.0955350000
C          C       0.60742  -0.00003   0.70190  -0.0890540000
C          C       0.58226   0.00015   0.78461  -0.0953010000
C          C       0.64256   0.24999   0.86874  -0.0892490000
C          C       0.66777   0.24993   0.95143  -0.0962070000
C          C       0.50001   0.39171   0.96470  -0.0862680000
C          C       0.50002   0.41690   0.88206  -0.0936720000
C          C       0.74995   0.14168   0.79817  -0.0877010000
C          C       0.75007   0.16686   0.71551  -0.0934630000
C          C       0.75004   0.35830   0.79796  -0.0873230000
C          C       0.75006   0.33312   0.71536  -0.0944820000
C          C       0.50014   0.10834   0.96474  -0.0880500000
C          C       0.49999   0.08314   0.88213  -0.0941470000
C          C       0.64173  -0.00003   0.88129  -0.0874740000
C          C       0.66687  -0.00001   0.79868  -0.0939850000
C          C       0.60827   0.24999   0.71465  -0.0861010000
C          C       0.58312   0.24996   0.96534  -0.0945060000
C          C       0.89171   0.25002   0.71479  -0.0873980000
C          C       0.91685   0.24995   0.96548  -0.0939530000
C          C       0.85828  -0.00007   0.88152  -0.0878980000
C          C       0.83313  -0.00001   0.79890  -0.0936280000
C          C       0.85746   0.24998   0.86866  -0.0883670000
C          C       0.83223   0.25007   0.95138  -0.0961200000
C          C       0.89256   0.00001   0.70219  -0.0883070000
C          C       0.91779  -0.00003   0.78483  -0.0975000000
H          H       0.70008   0.41739   0.69538   0.1202090000
H          H       0.95020   0.16721   0.86206   0.1201090000
H          H       0.54987   0.33277   0.86210   0.1203700000
H          H       0.79983   0.08277   0.69543   0.1203920000
H          H       0.58267   0.45028   0.77890   0.1196960000
H          H       0.83271   0.20021   0.94555   0.1201010000
H          H       0.66740   0.29980   0.94547   0.1200110000
H          H       0.91753   0.04982   0.77887   0.1205180000
H          H       0.54985   0.41666   0.88792   0.1192860000
H          H       0.79992   0.16651   0.72159   0.1190990000
H          H       0.70020   0.33336   0.72125   0.1186730000
H          H       0.95015   0.08349   0.88822   0.1182700000
H          H       0.66669   0.45017   0.80456   0.1193840000
H          H       0.91660   0.20011   0.97150   0.1192760000
H          H       0.58336   0.29979   0.97118   0.1185630000
H          H       0.83350   0.04985   0.80496   0.1182740000
H          H       0.79989   0.33331   0.72128   0.1188100000
H          H       0.54987   0.08320   0.88799   0.1192670000
H          H       0.95017   0.41666   0.88799   0.1189060000
H          H       0.70021   0.16672   0.72139   0.1187360000
H          H       0.91666   0.29978   0.97135   0.1183790000
H          H       0.66669   0.04983   0.80466   0.1190870000
H          H       0.83333   0.45013   0.80476   0.1195430000
H          H       0.58333   0.20014   0.97129   0.1190580000
H          H       0.95008   0.33258   0.86180   0.1198410000
H          H       0.70005   0.08265   0.69483   0.1197130000
H          H       0.79988   0.41733   0.69557   0.1197440000
H          H       0.55000   0.16731   0.86146   0.1197740000
H          H       0.83264   0.29994   0.94517   0.1197560000
H          H       0.58261   0.05002   0.77831   0.1199240000
H          H       0.91725   0.45009   0.77893   0.1198240000
H          H       0.66738   0.20005   0.94535   0.1201000000
H          H       0.75006   0.38294   0.92008   0.1358870000
H          H       0.75013   0.17608   0.68325   0.1151480000
H          H       0.49979   0.13274   0.75313   0.1352810000
H          H       0.49999   0.42608   0.84978   0.1153270000
H          H       0.50005   0.36719   0.75330   0.1357570000
H          H       0.49992   0.07388   0.84990   0.1153360000
H          H       0.75022   0.11730   0.91983   0.1355320000
H          H       0.75005   0.32390   0.68310   0.1155790000
H          H       0.61710  -0.00012   0.66988   0.1354700000
H          H       0.82400   0.00003   0.76660   0.1150210000
H          H       0.63289   0.25000   0.83673   0.1361410000
H          H       0.92600   0.24993   0.93319   0.1153410000
H          H       0.50005   0.38199   0.99670   0.1351790000
H          H       0.50021   0.17679   0.90009   0.1139900000
H          H       0.74990   0.13196   0.83017   0.1360890000
H          H       0.74995   0.42701   0.73374   0.1146190000
H          H       0.75006   0.36801   0.82996   0.1349730000
H          H       0.74983   0.07322   0.73348   0.1144290000
H          H       0.50028   0.11807   0.99673   0.1355070000
H          H       0.49992   0.32317   0.90029   0.1141260000
H          H       0.63199   0.00000   0.91328   0.1353490000
H          H       0.92702  -0.00007   0.81709   0.1148350000
H          H       0.61798   0.24998   0.74665   0.1353000000
H          H       0.82294   0.25016   0.98360   0.1142810000
H          H       0.88199   0.25002   0.74679   0.1355670000
H          H       0.67702   0.24990   0.98368   0.1143690000
H          H       0.86798  -0.00010   0.91353   0.1359610000
H          H       0.57304   0.00027   0.81687   0.1141690000
H          H       0.86711   0.24992   0.83662   0.1357650000
H          H       0.57395   0.24995   0.93305   0.1156980000
H          H       0.88293   0.00005   0.67015   0.1352930000
H          H       0.67605   0.00001   0.76641   0.1153400000
H          H       0.62690   0.14133   0.98782   0.4207060000
H          H       0.62320   0.10861   0.82120   0.4201710000
H          H       0.85863   0.37691   0.73795   0.4206170000
H          H       0.89148   0.37312   0.90466   0.4205560000
H          H       0.60861   0.12695   0.90454   0.4206370000
H          H       0.64141   0.12301   0.73789   0.4205650000
H          H       0.87683   0.39136   0.82134   0.4205590000
H          H       0.87322   0.35862   0.98795   0.4208970000
H          H       0.85863   0.12372   0.73737   0.4190370000
H          H       0.89129   0.12641   0.90398   0.4190580000
H          H       0.62676   0.35852   0.98796   0.4200050000
H          H       0.62325   0.39139   0.82119   0.4199280000
H          H       0.87654   0.10878   0.82067   0.4204420000
H          H       0.87350   0.14117   0.98688   0.4193210000
H          H       0.60857   0.37322   0.90460   0.4204120000
H          H       0.64144   0.37682   0.73787   0.4199560000
Al         Al      0.15871   0.87478   0.87601   1.6687390000
Al         Al      0.40856   0.62480   0.70924   1.6690690000
Al         Al      0.09131   0.87520   0.70932   1.6669260000
Al         Al      0.34136   0.62517   0.87593   1.6688980000
Al         Al      0.12521   0.90862   0.95935   1.6670280000
Al         Al      0.37519   0.65870   0.79263   1.6676000000
Al         Al      0.12481   0.84132   0.79265   1.6669940000
Al         Al      0.37482   0.59127   0.95926   1.6670760000
Al         Al      0.34141   0.87475   0.87609   1.6692860000
Al         Al      0.09140   0.62476   0.70920   1.6685240000
Al         Al      0.40865   0.87522   0.70930   1.6686270000
Al         Al      0.15864   0.62523   0.87590   1.6681980000
Al         Al      0.37522   0.84137   0.79270   1.6683200000
Al         Al      0.12523   0.59130   0.95916   1.6690010000
Al         Al      0.37483   0.90869   0.95934   1.6694390000
Al         Al      0.12479   0.65865   0.79251   1.6699000000
O          O       0.19089   0.87827   0.91707  -0.5828060000
O          O       0.16886   0.90951   0.96667  -0.5950320000
O          O       0.44086   0.62829   0.75018  -0.5829000000
O          O       0.41888   0.65967   0.79968  -0.5960860000
O          O       0.05910   0.87173   0.75027  -0.5830590000
O          O       0.08113   0.84043   0.79982  -0.5953120000
O          O       0.30913   0.62164   0.91679  -0.5837320000
O          O       0.33110   0.59033   0.96639  -0.5954300000
O          O       0.12170   0.94090   0.66693  -0.5829420000
O          O       0.09039   0.91889   0.71648  -0.5947820000
O          O       0.37165   0.69090   0.83364  -0.5836360000
O          O       0.34033   0.66888   0.88317  -0.5947660000
O          O       0.12830   0.80908   0.83363  -0.5828830000
O          O       0.15958   0.83110   0.88322  -0.5954390000
O          O       0.37831   0.55905   0.66697  -0.5830900000
O          O       0.40950   0.58112   0.71659  -0.5945280000
O          O       0.05903   0.87823   0.66707  -0.5860700000
O          O       0.08128   0.90887   0.95002  -0.6145320000
O          O       0.30901   0.62814   0.83386  -0.5869190000
O          O       0.33127   0.65853   0.78328  -0.6162470000
O          O       0.19095   0.87169   0.83374  -0.5862910000
O          O       0.16879   0.84093   0.78339  -0.6143470000
O          O       0.44096   0.62173   0.66725  -0.5875700000
O          O       0.41876   0.59142   0.94987  -0.6165980000
O          O       0.12832   0.94088   0.91697  -0.5869600000
O          O       0.15928   0.91876   0.86680  -0.6153180000
O          O       0.37809   0.69104   0.75049  -0.5879490000
O          O       0.40832   0.66868   0.69984  -0.6163800000
O          O       0.12174   0.80907   0.75031  -0.5854420000
O          O       0.09092   0.83124   0.70005  -0.6148900000
O          O       0.37196   0.55895   0.91715  -0.5871150000
O          O       0.34169   0.58129   0.86656  -0.6165490000
O          O       0.30912   0.87172   0.83376  -0.5864010000
O          O       0.33126   0.84100   0.78335  -0.6139950000
O          O       0.05920   0.62179   0.66686  -0.5868170000
O          O       0.08128   0.59083   0.95001  -0.6146060000
O          O       0.44090   0.87823   0.66699  -0.5858720000
O          O       0.41879   0.90909   0.95007  -0.6148710000
O          O       0.19090   0.62826   0.83373  -0.5866700000
O          O       0.16873   0.65890   0.78329  -0.6155270000
O          O       0.37829   0.80908   0.75046  -0.5861620000
O          O       0.40881   0.83130   0.69993  -0.6155580000
O          O       0.12817   0.55905   0.91691  -0.5862200000
O          O       0.15890   0.58127   0.86663  -0.6153980000
O          O       0.37176   0.94100   0.91725  -0.5872000000
O          O       0.34146   0.91863   0.86665  -0.6158390000
O          O       0.12185   0.69093   0.75029  -0.5872450000
O          O       0.09119   0.66870   0.69994  -0.6156240000
O          O       0.44086   0.87161   0.75026  -0.5840900000
O          O       0.41887   0.84054   0.80006  -0.5941500000
O          O       0.19097   0.62179   0.91667  -0.5830560000
O          O       0.16895   0.59024   0.96586  -0.5970740000
O          O       0.30910   0.87827   0.91698  -0.5830900000
O          O       0.33113   0.90961   0.96647  -0.5954310000
O          O       0.05906   0.62821   0.74998  -0.5831110000
O          O       0.08107   0.65975   0.79923  -0.5970070000
O          O       0.37163   0.80916   0.83364  -0.5830840000
O          O       0.34053   0.83115   0.88341  -0.5953910000
O          O       0.12172   0.55913   0.66685  -0.5836980000
O          O       0.09050   0.58110   0.71657  -0.5949050000
O          O       0.37832   0.94091   0.66700  -0.5831250000
O          O       0.40963   0.91889   0.71653  -0.5954420000
O          O       0.12827   0.69088   0.83358  -0.5834960000
O          O       0.15956   0.66889   0.88318  -0.5952110000
O          O       0.12820   0.87675   0.91882  -1.0042560000
O          O       0.37816   0.62678   0.75207  -1.0029910000
O          O       0.12183   0.87325   0.75216  -1.0035100000
O          O       0.37181   0.62326   0.91876  -1.0027590000
O          O       0.12323   0.87814   0.66886  -1.0032290000
O          O       0.37326   0.62824   0.83541  -1.0041690000
O          O       0.12679   0.87181   0.83551  -1.0036500000
O          O       0.37669   0.62181   0.66863  -1.0030410000
O          O       0.37322   0.87175   0.83554  -1.0051450000
O          O       0.12331   0.62174   0.66875  -1.0051060000
O          O       0.37676   0.87823   0.66883  -1.0051120000
O          O       0.12671   0.62823   0.83543  -1.0044120000
O          O       0.37822   0.87324   0.75218  -1.0050010000
O          O       0.12819   0.62326   0.91878  -1.0045480000
O          O       0.37188   0.87682   0.91888  -1.0047440000
O          O       0.12182   0.62674   0.75210  -1.0047140000
C          C       0.19182   0.89524   0.95039   0.6305430000
C          C       0.22204   0.89948   0.97253  -0.0598710000
C          C       0.22216   0.91206   0.68052  -0.0735220000
C          C       0.44180   0.64528   0.78348   0.6316710000
C          C       0.47201   0.64940   0.80566  -0.0597760000
C          C       0.47222   0.66190   0.84702  -0.0738140000
C          C       0.05819   0.85473   0.78358   0.6314610000
C          C       0.02798   0.85056   0.80573  -0.0598300000
C          C       0.02784   0.83804   0.84709  -0.0739700000
C          C       0.30820   0.60470   0.95014   0.6317840000
C          C       0.27800   0.60063   0.97235  -0.0602490000
C          C       0.27783   0.58810   0.68037  -0.0737000000
C          C       0.10470   0.94183   0.70026   0.6303780000
C          C       0.10052   0.97204   0.72243  -0.0587270000
C          C       0.08799   0.97227   0.76380  -0.0742770000
C          C       0.35465   0.69181   0.86698   0.6312100000
C          C       0.35052   0.72203   0.88915  -0.0598620000
C          C       0.33799   0.72222   0.93051  -0.0740590000
C          C       0.14529   0.80815   0.86696   0.6313030000
C          C       0.14950   0.77795   0.88916  -0.0603510000
C          C       0.16206   0.77778   0.93050  -0.0735620000
C          C       0.39523   0.55816   0.70037   0.6298460000
C          C       0.39943   0.52798   0.72263  -0.0593450000
C          C       0.41209   0.52782   0.76391  -0.0741950000
C          C       0.05823   0.89472   0.96673   0.6242610000
C          C       0.02803   0.89868   0.94433  -0.0579070000
C          C       0.02787   0.91123   0.90298  -0.0757230000
C          C       0.30819   0.64456   0.80014   0.6262980000
C          C       0.27798   0.64862   0.77784  -0.0576670000
C          C       0.27788   0.66115   0.73651  -0.0753160000
C          C       0.19180   0.85517   0.80008   0.6241420000
C          C       0.22203   0.85130   0.77764  -0.0571500000
C          C       0.22219   0.83876   0.73628  -0.0756360000
C          C       0.44183   0.60537   0.96680   0.6271360000
C          C       0.47208   0.60138   0.94449  -0.0576370000
C          C       0.47219   0.58886   0.90314  -0.0743110000
C          C       0.14494   0.94173   0.88339   0.6254500000
C          C       0.14877   0.97196   0.86098  -0.0567010000
C          C       0.16126   0.97214   0.81961  -0.0764260000
C          C       0.39447   0.69181   0.71670   0.6273480000
C          C       0.39860   0.72202   0.69442  -0.0577760000
C          C       0.41117   0.72213   0.98643  -0.0752880000
C          C       0.10519   0.80823   0.71669   0.6239280000
C          C       0.10127   0.77800   0.69429  -0.0577030000
C          C       0.08876   0.77782   0.98625  -0.0752410000
C          C       0.35554   0.55817   0.88341   0.6268830000
C          C       0.35139   0.52794   0.86118  -0.0577190000
C          C       0.33883   0.52781   0.81987  -0.0744650000
C          C       0.30828   0.85524   0.80007   0.6234420000
C          C       0.27807   0.85134   0.77763  -0.0570310000
C          C       0.27791   0.83878   0.73630  -0.0747230000
C          C       0.05833   0.60519   0.96662   0.6241740000
C          C       0.02810   0.60131   0.94429  -0.0569880000
C          C       0.02789   0.58871   0.90299  -0.0751410000
C          C       0.44178   0.89480   0.96672   0.6237640000
C          C       0.47200   0.89870   0.94434  -0.0574560000
C          C       0.47217   0.91124   0.90299  -0.0756800000
C          C       0.19175   0.64475   0.80005   0.6250960000
C          C       0.22198   0.64868   0.77773  -0.0574180000
C          C       0.22220   0.66122   0.73638  -0.0753140000
C          C       0.39473   0.80825   0.71675   0.6253400000
C          C       0.39873   0.77802   0.69443  -0.0579090000
C          C       0.41126   0.77780   0.98641  -0.0747670000
C          C       0.14470   0.55822   0.88329   0.6250550000
C          C       0.14869   0.52799   0.86094  -0.0570780000
C          C       0.16124   0.52783   0.81962  -0.0764600000
C          C       0.35536   0.94174   0.88348   0.6263820000
C          C       0.35129   0.97194   0.86113  -0.0575820000
C          C       0.33875   0.97212   0.81979  -0.0760130000
C          C       0.10533   0.69175   0.71665   0.6260620000
C          C       0.10131   0.72198   0.69430  -0.0582140000
C          C       0.08876   0.72213   0.98630  -0.0755550000
C          C       0.44182   0.85472   0.78367   0.6310040000
C          C       0.47206   0.85051   0.80570  -0.0601900000
C          C       0.47216   0.83795   0.84700  -0.0737260000
C          C       0.19190   0.60467   0.94982   0.6329550000
C          C       0.22207   0.60053   0.97206  -0.0607660000
C          C       0.22215   0.58801   0.68006  -0.0735770000
C          C       0.30818   0.89530   0.95028   0.6310300000
C          C       0.27799   0.89949   0.97253  -0.0597040000
C          C       0.27785   0.91203   0.68056  -0.0729360000
C          C       0.05814   0.64533   0.78314   0.6329320000
C          C       0.02795   0.64946   0.80535  -0.0606730000
C          C       0.02791   0.66197   0.84669  -0.0740050000
C          C       0.35476   0.80821   0.86704   0.6311600000
C          C       0.35056   0.77796   0.88907  -0.0607590000
C          C       0.33798   0.77786   0.93037  -0.0730990000
C          C       0.10472   0.55817   0.70016   0.6313620000
C          C       0.10047   0.52796   0.72221  -0.0607970000
C          C       0.08793   0.52793   0.76353  -0.0733640000
C          C       0.39533   0.94184   0.70030   0.6309180000
C          C       0.39951   0.97202   0.72253  -0.0609550000
C          C       0.41202   0.97213   0.76390  -0.0722980000
C          C       0.14525   0.69183   0.86692   0.6309830000
C          C       0.14947   0.72201   0.88913  -0.0599930000
C          C       0.16205   0.72211   0.93045  -0.0736190000
C          C       0.25002   0.89259   0.95212  -0.0895430000
C          C       0.24999   0.91778   0.70147  -0.0971000000
C          C      -0.00007   0.64246   0.78511  -0.0882020000
C          C       0.00012   0.66761   0.86781  -0.0951230000
C          C       0.00003   0.85748   0.78529  -0.0887520000
C          C      -0.00002   0.83231   0.86800  -0.0955240000
C          C       0.25009   0.60755   0.95180  -0.0882920000
C          C       0.24994   0.58239   0.70119  -0.0955350000
C          C       0.10742   0.49996   0.70190  -0.0890540000
C          C       0.08226   0.50016   0.78461  -0.0953010000
C          C       0.14256   0.74999   0.86874  -0.0892490000
C          C       0.16777   0.74994   0.95143  -0.0962070000
C          C       0.00002   0.89171   0.96470  -0.0862680000
C          C       0.00002   0.91690   0.88206  -0.0936720000
C          C       0.24995   0.64168   0.79817  -0.0877010000
C          C       0.25007   0.66686   0.71551  -0.0934630000
C          C       0.25005   0.85830   0.79796  -0.0873230000
C          C       0.25005   0.83312   0.71536  -0.0944820000
C          C       0.00014   0.60834   0.96474  -0.0880500000
C          C      -0.00001   0.58313   0.88213  -0.0941470000
C          C       0.14173   0.49997   0.88129  -0.0874740000
C          C       0.16686   0.49999   0.79868  -0.0939850000
C          C       0.10826   0.75000   0.71465  -0.0861010000
C          C       0.08312   0.74996   0.96534  -0.0945060000
C          C       0.39170   0.75003   0.71479  -0.0873980000
C          C       0.41685   0.74995   0.96548  -0.0939530000
C          C       0.35828   0.49992   0.88152  -0.0878980000
C          C       0.33313   0.49999   0.79890  -0.0936280000
C          C       0.35746   0.74998   0.86866  -0.0883670000
C          C       0.33223   0.75008   0.95138  -0.0961200000
C          C       0.39256   0.50001   0.70219  -0.0883070000
C          C       0.41778   0.49996   0.78483  -0.0975000000
H          H       0.20008   0.91739   0.69538   0.1202090000
H          H       0.45020   0.66721   0.86206   0.1201090000
H          H       0.04987   0.83277   0.86210   0.1203700000
H          H       0.29984   0.58277   0.69543   0.1203920000
H          H       0.08267   0.95029   0.77890   0.1196960000
H          H       0.33271   0.70021   0.94555   0.1201010000
H          H       0.16740   0.79980   0.94547   0.1200110000
H          H       0.41753   0.54983   0.77887   0.1205180000
H          H       0.04985   0.91666   0.88792   0.1192860000
H          H       0.29992   0.66651   0.72159   0.1190990000
H          H       0.20020   0.83336   0.72125   0.1186730000
H          H       0.45015   0.58349   0.88822   0.1182700000
H          H       0.16668   0.95017   0.80456   0.1193840000
H          H       0.41659   0.70011   0.97150   0.1192760000
H          H       0.08336   0.79979   0.97118   0.1185630000
H          H       0.33350   0.54985   0.80496   0.1182740000
H          H       0.29989   0.83331   0.72128   0.1188100000
H          H       0.04987   0.58320   0.88799   0.1192670000
H          H       0.45017   0.91666   0.88799   0.1189060000
H          H       0.20021   0.66672   0.72139   0.1187360000
H          H       0.41665   0.79978   0.97135   0.1183790000
H          H       0.16669   0.54983   0.80466   0.1190870000
H          H       0.33333   0.95013   0.80476   0.1195430000
H          H       0.08333   0.70014   0.97129   0.1190580000
H          H       0.45008   0.83259   0.86180   0.1198410000
H          H       0.20005   0.58265   0.69483   0.1197130000
H          H       0.29988   0.91734   0.69557   0.1197440000
H          H       0.05000   0.66731   0.86146   0.1197740000
H          H       0.33264   0.79994   0.94517   0.1197560000
H          H       0.08261   0.55002   0.77831   0.1199240000
H          H       0.41724   0.95010   0.77893   0.1198240000
H          H       0.16737   0.70005   0.94535   0.1201000000
H          H       0.25006   0.88294   0.92008   0.1358870000
H          H       0.25013   0.67607   0.68325   0.1151480000
H          H      -0.00020   0.63274   0.75313   0.1352810000
H          H      -0.00001   0.92608   0.84978   0.1153270000
H          H       0.00005   0.86719   0.75330   0.1357570000
H          H      -0.00008   0.57388   0.84990   0.1153360000
H          H       0.25022   0.61730   0.91983   0.1355320000
H          H       0.25005   0.82390   0.68310   0.1155790000
H          H       0.11710   0.49988   0.66988   0.1354700000
H          H       0.32399   0.50004   0.76660   0.1150210000
H          H       0.13288   0.75000   0.83673   0.1361410000
H          H       0.42600   0.74993   0.93319   0.1153410000
H          H       0.00005   0.88199   0.99670   0.1351790000
H          H       0.00021   0.67679   0.90009   0.1139900000
H          H       0.24990   0.63196   0.83017   0.1360890000
H          H       0.24995   0.92701   0.73374   0.1146190000
H          H       0.25006   0.86801   0.82996   0.1349730000
H          H       0.24983   0.57322   0.73348   0.1144290000
H          H       0.00028   0.61806   0.99673   0.1355070000
H          H      -0.00007   0.82317   0.90029   0.1141260000
H          H       0.13198   0.50000   0.91328   0.1353490000
H          H       0.42702   0.49993   0.81709   0.1148350000
H          H       0.11798   0.74998   0.74665   0.1353000000
H          H       0.32294   0.75016   0.98360   0.1142810000
H          H       0.38199   0.75003   0.74679   0.1355670000
H          H       0.17702   0.74990   0.98368   0.1143690000
H          H       0.36798   0.49990   0.91353   0.1359610000
H          H       0.07304   0.50028   0.81687   0.1141690000
H          H       0.36711   0.74992   0.83662   0.1357650000
H          H       0.07395   0.74994   0.93305   0.1156980000
H          H       0.38293   0.50004   0.67015   0.1352930000
H          H       0.17605   0.50001   0.76641   0.1153400000
H          H       0.12690   0.64133   0.98782   0.4207060000
H          H       0.12320   0.60861   0.82120   0.4201710000
H          H       0.35864   0.87691   0.73795   0.4206170000
H          H       0.39147   0.87312   0.90466   0.4205560000
H          H       0.10860   0.62694   0.90454   0.4206370000
H          H       0.14141   0.62301   0.73789   0.4205650000
H          H       0.37682   0.89136   0.82134   0.4205590000
H          H       0.37322   0.85862   0.98795   0.4208970000
H          H       0.35863   0.62372   0.73737   0.4190370000
H          H       0.39129   0.62642   0.90398   0.4190580000
H          H       0.12675   0.85852   0.98796   0.4200050000
H          H       0.12325   0.89139   0.82119   0.4199280000
H          H       0.37654   0.60878   0.82067   0.4204420000
H          H       0.37349   0.64116   0.98688   0.4193210000
H          H       0.10857   0.87322   0.90460   0.4204120000
H          H       0.14144   0.87682   0.73787   0.4199560000
Al         Al      0.65871   0.87478   0.87601   1.6687390000
Al         Al      0.90856   0.62480   0.70924   1.6690690000
Al         Al      0.59131   0.87520   0.70932   1.6669260000
Al         Al      0.84136   0.62517   0.87593   1.6688980000
Al         Al      0.62521   0.90862   0.95935   1.6670280000
Al         Al      0.87519   0.65870   0.79263   1.6676000000
Al         Al      0.62481   0.84132   0.79265   1.6669940000
Al         Al      0.87482   0.59127   0.95926   1.6670760000
Al         Al      0.84141   0.87475   0.87609   1.6692860000
Al         Al      0.59140   0.62476   0.70920   1.6685240000
Al         Al      0.90865   0.87522   0.70930   1.6686270000
Al         Al      0.65864   0.62523   0.87590   1.6681980000
Al         Al      0.87522   0.84137   0.79270   1.6683200000
Al         Al      0.62523   0.59130   0.95916   1.6690010000
Al         Al      0.87483   0.90869   0.95934   1.6694390000
Al         Al      0.62479   0.65865   0.79251   1.6699000000
O          O       0.69089   0.87827   0.91707  -0.5828060000
O          O       0.66886   0.90951   0.96667  -0.5950320000
O          O       0.94086   0.62829   0.75018  -0.5829000000
O          O       0.91889   0.65967   0.79968  -0.5960860000
O          O       0.55910   0.87173   0.75027  -0.5830590000
O          O       0.58113   0.84043   0.79982  -0.5953120000
O          O       0.80914   0.62164   0.91679  -0.5837320000
O          O       0.83110   0.59033   0.96639  -0.5954300000
O          O       0.62170   0.94090   0.66693  -0.5829420000
O          O       0.59039   0.91889   0.71648  -0.5947820000
O          O       0.87165   0.69090   0.83364  -0.5836360000
O          O       0.84034   0.66888   0.88317  -0.5947660000
O          O       0.62831   0.80908   0.83363  -0.5828830000
O          O       0.65958   0.83110   0.88322  -0.5954390000
O          O       0.87832   0.55905   0.66697  -0.5830900000
O          O       0.90951   0.58112   0.71659  -0.5945280000
O          O       0.55904   0.87823   0.66707  -0.5860700000
O          O       0.58128   0.90887   0.95002  -0.6145320000
O          O       0.80901   0.62814   0.83386  -0.5869190000
O          O       0.83127   0.65853   0.78328  -0.6162470000
O          O       0.69095   0.87169   0.83374  -0.5862910000
O          O       0.66879   0.84093   0.78339  -0.6143470000
O          O       0.94096   0.62173   0.66725  -0.5875700000
O          O       0.91876   0.59142   0.94987  -0.6165980000
O          O       0.62832   0.94088   0.91697  -0.5869600000
O          O       0.65928   0.91876   0.86680  -0.6153180000
O          O       0.87810   0.69104   0.75049  -0.5879490000
O          O       0.90832   0.66868   0.69984  -0.6163800000
O          O       0.62175   0.80907   0.75031  -0.5854420000
O          O       0.59092   0.83124   0.70005  -0.6148900000
O          O       0.87196   0.55895   0.91715  -0.5871150000
O          O       0.84169   0.58129   0.86656  -0.6165490000
O          O       0.80912   0.87172   0.83376  -0.5864010000
O          O       0.83127   0.84100   0.78335  -0.6139950000
O          O       0.55919   0.62179   0.66686  -0.5868170000
O          O       0.58129   0.59083   0.95001  -0.6146060000
O          O       0.94091   0.87823   0.66699  -0.5858720000
O          O       0.91879   0.90909   0.95007  -0.6148710000
O          O       0.69090   0.62826   0.83373  -0.5866700000
O          O       0.66873   0.65890   0.78329  -0.6155270000
O          O       0.87830   0.80908   0.75046  -0.5861620000
O          O       0.90881   0.83130   0.69993  -0.6155580000
O          O       0.62817   0.55905   0.91691  -0.5862200000
O          O       0.65890   0.58127   0.86663  -0.6153980000
O          O       0.87176   0.94100   0.91725  -0.5872000000
O          O       0.84145   0.91863   0.86665  -0.6158390000
O          O       0.62186   0.69093   0.75029  -0.5872450000
O          O       0.59120   0.66870   0.69994  -0.6156240000
O          O       0.94086   0.87161   0.75026  -0.5840900000
O          O       0.91887   0.84054   0.80006  -0.5941500000
O          O       0.69097   0.62179   0.91667  -0.5830560000
O          O       0.66895   0.59024   0.96586  -0.5970740000
O          O       0.80910   0.87827   0.91698  -0.5830900000
O          O       0.83113   0.90961   0.96647  -0.5954310000
O          O       0.55906   0.62821   0.74998  -0.5831110000
O          O       0.58108   0.65975   0.79923  -0.5970070000
O          O       0.87163   0.80916   0.83364  -0.5830840000
O          O       0.84054   0.83115   0.88341  -0.5953910000
O          O       0.62172   0.55913   0.66685  -0.5836980000
O          O       0.59051   0.58110   0.71657  -0.5949050000
O          O       0.87832   0.94091   0.66700  -0.5831250000
O          O       0.90963   0.91889   0.71653  -0.5954420000
O          O       0.62828   0.69088   0.83358  -0.5834960000
O          O       0.65956   0.66889   0.88318  -0.5952110000
O          O       0.62820   0.87675   0.91882  -1.0042560000
O          O       0.87816   0.62678   0.75207  -1.0029910000
O          O       0.62184   0.87325   0.75216  -1.0035100000
O          O       0.87181   0.62326   0.91876  -1.0027590000
O          O       0.62323   0.87814   0.66886  -1.0032290000
O          O       0.87326   0.62824   0.83541  -1.0041690000
O          O       0.62679   0.87181   0.83551  -1.0036500000
O          O       0.87669   0.62181   0.66863  -1.0030410000
O          O       0.87322   0.87175   0.83554  -1.0051450000
O          O       0.62331   0.62174   0.66875  -1.0051060000
O          O       0.87676   0.87823   0.66883  -1.0051120000
O          O       0.62671   0.62823   0.83543  -1.0044120000
O          O       0.87823   0.87324   0.75218  -1.0050010000
O          O       0.62819   0.62326   0.91878  -1.0045480000
O          O       0.87188   0.87682   0.91888  -1.0047440000
O          O       0.62183   0.62674   0.75210  -1.0047140000
C          C       0.69182   0.89524   0.95039   0.6305430000
C          C       0.72204   0.89948   0.97253  -0.0598710000
C          C       0.72215   0.91206   0.68052  -0.0735220000
C          C       0.94181   0.64528   0.78348   0.6316710000
C          C       0.97201   0.64940   0.80566  -0.0597760000
C          C       0.97222   0.66190   0.84702  -0.0738140000
C          C       0.55819   0.85473   0.78358   0.6314610000
C          C       0.52799   0.85056   0.80573  -0.0598300000
C          C       0.52784   0.83804   0.84709  -0.0739700000
C          C       0.80820   0.60470   0.95014   0.6317840000
C          C       0.77800   0.60063   0.97235  -0.0602490000
C          C       0.77783   0.58810   0.68037  -0.0737000000
C          C       0.60470   0.94183   0.70026   0.6303780000
C          C       0.60052   0.97204   0.72243  -0.0587270000
C          C       0.58799   0.97227   0.76380  -0.0742770000
C          C       0.85465   0.69181   0.86698   0.6312100000
C          C       0.85052   0.72203   0.88915  -0.0598620000
C          C       0.83799   0.72222   0.93051  -0.0740590000
C          C       0.64529   0.80815   0.86696   0.6313030000
C          C       0.64950   0.77795   0.88916  -0.0603510000
C          C       0.66207   0.77778   0.93050  -0.0735620000
C          C       0.89523   0.55816   0.70037   0.6298460000
C          C       0.89943   0.52798   0.72263  -0.0593450000
C          C       0.91209   0.52782   0.76391  -0.0741950000
C          C       0.55823   0.89472   0.96673   0.6242610000
C          C       0.52802   0.89868   0.94433  -0.0579070000
C          C       0.52787   0.91123   0.90298  -0.0757230000
C          C       0.80819   0.64456   0.80014   0.6262980000
C          C       0.77798   0.64862   0.77784  -0.0576670000
C          C       0.77788   0.66115   0.73651  -0.0753160000
C          C       0.69180   0.85517   0.80008   0.6241420000
C          C       0.72203   0.85130   0.77764  -0.0571500000
C          C       0.72219   0.83876   0.73628  -0.0756360000
C          C       0.94183   0.60537   0.96680   0.6271360000
C          C       0.97208   0.60138   0.94449  -0.0576370000
C          C       0.97219   0.58886   0.90314  -0.0743110000
C          C       0.64494   0.94173   0.88339   0.6254500000
C          C       0.64877   0.97196   0.86098  -0.0567010000
C          C       0.66126   0.97214   0.81961  -0.0764260000
C          C       0.89447   0.69181   0.71670   0.6273480000
C          C       0.89860   0.72202   0.69442  -0.0577760000
C          C       0.91118   0.72213   0.98643  -0.0752880000
C          C       0.60519   0.80823   0.71669   0.6239280000
C          C       0.60127   0.77800   0.69429  -0.0577030000
C          C       0.58876   0.77782   0.98625  -0.0752410000
C          C       0.85554   0.55817   0.88341   0.6268830000
C          C       0.85139   0.52794   0.86118  -0.0577190000
C          C       0.83883   0.52781   0.81987  -0.0744650000
C          C       0.80828   0.85524   0.80007   0.6234420000
C          C       0.77807   0.85134   0.77763  -0.0570310000
C          C       0.77791   0.83878   0.73630  -0.0747230000
C          C       0.55833   0.60519   0.96662   0.6241740000
C          C       0.52810   0.60131   0.94429  -0.0569880000
C          C       0.52789   0.58871   0.90299  -0.0751410000
C          C       0.94178   0.89480   0.96672   0.6237640000
C          C       0.97201   0.89870   0.94434  -0.0574560000
C          C       0.97217   0.91124   0.90299  -0.0756800000
C          C       0.69175   0.64475   0.80005   0.6250960000
C          C       0.72198   0.64868   0.77773  -0.0574180000
C          C       0.72220   0.66122   0.73638  -0.0753140000
C          C       0.89473   0.80825   0.71675   0.6253400000
C          C       0.89874   0.77802   0.69443  -0.0579090000
C          C       0.91126   0.77780   0.98641  -0.0747670000
C          C       0.64470   0.55822   0.88329   0.6250550000
C          C       0.64869   0.52799   0.86094  -0.0570780000
C          C       0.66124   0.52783   0.81962  -0.0764600000
C          C       0.85536   0.94174   0.88348   0.6263820000
C          C       0.85129   0.97194   0.86113  -0.0575820000
C          C       0.83875   0.97212   0.81979  -0.0760130000
C          C       0.60533   0.69175   0.71665   0.6260620000
C          C       0.60131   0.72198   0.69430  -0.0582140000
C          C       0.58876   0.72213   0.98630  -0.0755550000
C          C       0.94182   0.85472   0.78367   0.6310040000
C          C       0.97206   0.85051   0.80570  -0.0601900000
C          C       0.97216   0.83795   0.84700  -0.0737260000
C          C       0.69190   0.60467   0.94982   0.6329550000
C          C       0.72207   0.60053   0.97206  -0.0607660000
C          C       0.72215   0.58801   0.68006  -0.0735770000
C          C       0.80818   0.89530   0.95028   0.6310300000
C          C       0.77799   0.89949   0.97253  -0.0597040000
C          C       0.77785   0.91203   0.68056  -0.0729360000
C          C       0.55814   0.64533   0.78314   0.6329320000
C          C       0.52795   0.64946   0.80535  -0.0606730000
C          C       0.52791   0.66197   0.84669  -0.0740050000
C          C       0.85476   0.80821   0.86704   0.6311600000
C          C       0.85056   0.77796   0.88907  -0.0607590000
C          C       0.83798   0.77786   0.93037  -0.0730990000
C          C       0.60472   0.55817   0.70016   0.6313620000
C          C       0.60047   0.52796   0.72221  -0.0607970000
C          C       0.58793   0.52793   0.76353  -0.0733640000
C          C       0.89533   0.94184   0.70030   0.6309180000
C          C       0.89951   0.97202   0.72253  -0.0609550000
C          C       0.91202   0.97213   0.76390  -0.0722980000
C          C       0.64526   0.69183   0.86692   0.6309830000
C          C       0.64947   0.72201   0.88913  -0.0599930000
C          C       0.66205   0.72211   0.93045  -0.0736190000
C          C       0.75002   0.89259   0.95212  -0.0895430000
C          C       0.74999   0.91778   0.70147  -0.0971000000
C          C       0.49993   0.64246   0.78511  -0.0882020000
C          C       0.50013   0.66761   0.86781  -0.0951230000
C          C       0.50003   0.85748   0.78529  -0.0887520000
C          C       0.49998   0.83231   0.86800  -0.0955240000
C          C       0.75009   0.60755   0.95180  -0.0882920000
C          C       0.74994   0.58239   0.70119  -0.0955350000
C          C       0.60742   0.49996   0.70190  -0.0890540000
C          C       0.58226   0.50016   0.78461  -0.0953010000
C          C       0.64256   0.74999   0.86874  -0.0892490000
C          C       0.66777   0.74994   0.95143  -0.0962070000
C          C       0.50001   0.89171   0.96470  -0.0862680000
C          C       0.50002   0.91690   0.88206  -0.0936720000
C          C       0.74995   0.64168   0.79817  -0.0877010000
C          C       0.75007   0.66686   0.71551  -0.0934630000
C          C       0.75004   0.85830   0.79796  -0.0873230000
C          C       0.75006   0.83312   0.71536  -0.0944820000
C          C       0.50014   0.60834   0.96474  -0.0880500000
C          C       0.49999   0.58313   0.88213  -0.0941470000
C          C       0.64173   0.49997   0.88129  -0.0874740000
C          C       0.66687   0.49999   0.79868  -0.0939850000
C          C       0.60827   0.75000   0.71465  -0.0861010000
C          C       0.58312   0.74996   0.96534  -0.0945060000
C          C       0.89171   0.75003   0.71479  -0.0873980000
C          C       0.91685   0.74995   0.96548  -0.0939530000
C          C       0.85828   0.49992   0.88152  -0.0878980000
C          C       0.83313   0.49999   0.79890  -0.0936280000
C          C       0.85746   0.74998   0.86866  -0.0883670000
C          C       0.83223   0.75008   0.95138  -0.0961200000
C          C       0.89256   0.50001   0.70219  -0.0883070000
C          C       0.91779   0.49996   0.78483  -0.0975000000
H          H       0.70008   0.91739   0.69538   0.1202090000
H          H       0.95020   0.66721   0.86206   0.1201090000
H          H       0.54987   0.83277   0.86210   0.1203700000
H          H       0.79983   0.58277   0.69543   0.1203920000
H          H       0.58266   0.95029   0.77890   0.1196960000
H          H       0.83271   0.70021   0.94555   0.1201010000
H          H       0.66740   0.79980   0.94547   0.1200110000
H          H       0.91753   0.54983   0.77887   0.1205180000
H          H       0.54984   0.91666   0.88792   0.1192860000
H          H       0.79992   0.66651   0.72159   0.1190990000
H          H       0.70020   0.83336   0.72125   0.1186730000
H          H       0.95015   0.58349   0.88822   0.1182700000
H          H       0.66668   0.95017   0.80456   0.1193840000
H          H       0.91660   0.70011   0.97150   0.1192760000
H          H       0.58336   0.79979   0.97118   0.1185630000
H          H       0.83350   0.54985   0.80496   0.1182740000
H          H       0.79989   0.83331   0.72128   0.1188100000
H          H       0.54987   0.58320   0.88799   0.1192670000
H          H       0.95017   0.91666   0.88799   0.1189060000
H          H       0.70021   0.66672   0.72139   0.1187360000
H          H       0.91666   0.79978   0.97135   0.1183790000
H          H       0.66669   0.54983   0.80466   0.1190870000
H          H       0.83333   0.95013   0.80476   0.1195430000
H          H       0.58333   0.70014   0.97129   0.1190580000
H          H       0.95008   0.83259   0.86180   0.1198410000
H          H       0.70005   0.58265   0.69483   0.1197130000
H          H       0.79987   0.91734   0.69557   0.1197440000
H          H       0.55000   0.66731   0.86146   0.1197740000
H          H       0.83264   0.79994   0.94517   0.1197560000
H          H       0.58261   0.55002   0.77831   0.1199240000
H          H       0.91724   0.95010   0.77893   0.1198240000
H          H       0.66738   0.70005   0.94535   0.1201000000
H          H       0.75006   0.88294   0.92008   0.1358870000
H          H       0.75013   0.67607   0.68325   0.1151480000
H          H       0.49979   0.63274   0.75313   0.1352810000
H          H       0.49999   0.92608   0.84978   0.1153270000
H          H       0.50005   0.86719   0.75330   0.1357570000
H          H       0.49992   0.57388   0.84990   0.1153360000
H          H       0.75022   0.61730   0.91983   0.1355320000
H          H       0.75005   0.82390   0.68310   0.1155790000
H          H       0.61710   0.49988   0.66988   0.1354700000
H          H       0.82400   0.50004   0.76660   0.1150210000
H          H       0.63289   0.75000   0.83673   0.1361410000
H          H       0.92600   0.74993   0.93319   0.1153410000
H          H       0.50005   0.88199   0.99670   0.1351790000
H          H       0.50021   0.67679   0.90009   0.1139900000
H          H       0.74990   0.63196   0.83017   0.1360890000
H          H       0.74994   0.92701   0.73374   0.1146190000
H          H       0.75006   0.86801   0.82996   0.1349730000
H          H       0.74983   0.57322   0.73348   0.1144290000
H          H       0.50028   0.61806   0.99673   0.1355070000
H          H       0.49992   0.82317   0.90029   0.1141260000
H          H       0.63199   0.50000   0.91328   0.1353490000
H          H       0.92702   0.49993   0.81709   0.1148350000
H          H       0.61798   0.74998   0.74665   0.1353000000
H          H       0.82294   0.75016   0.98360   0.1142810000
H          H       0.88199   0.75003   0.74679   0.1355670000
H          H       0.67702   0.74990   0.98368   0.1143690000
H          H       0.86798   0.49990   0.91353   0.1359610000
H          H       0.57304   0.50028   0.81687   0.1141690000
H          H       0.86711   0.74992   0.83662   0.1357650000
H          H       0.57395   0.74994   0.93305   0.1156980000
H          H       0.88293   0.50004   0.67015   0.1352930000
H          H       0.67605   0.50001   0.76641   0.1153400000
H          H       0.62690   0.64133   0.98782   0.4207060000
H          H       0.62320   0.60861   0.82120   0.4201710000
H          H       0.85863   0.87691   0.73795   0.4206170000
H          H       0.89148   0.87312   0.90466   0.4205560000
H          H       0.60861   0.62694   0.90454   0.4206370000
H          H       0.64141   0.62301   0.73789   0.4205650000
H          H       0.87683   0.89136   0.82134   0.4205590000
H          H       0.87322   0.85862   0.98795   0.4208970000
H          H       0.85863   0.62372   0.73737   0.4190370000
H          H       0.89129   0.62642   0.90398   0.4190580000
H          H       0.62676   0.85852   0.98796   0.4200050000
H          H       0.62325   0.89139   0.82119   0.4199280000
H          H       0.87654   0.60878   0.82067   0.4204420000
H          H       0.87350   0.64116   0.98688   0.4193210000
H          H       0.60857   0.87322   0.90460   0.4204120000
H          H       0.64144   0.87682   0.73787   0.4199560000
