data_crystal
 
_cell_length_a    38.16440
_cell_length_b    38.16440
_cell_length_c    36.25440
_cell_angle_alpha 90.00000
_cell_angle_beta  90.00000
_cell_angle_gamma 90.00000
 
_symmetry_space_group_name_Hall 'P 1'
_symmetry_space_group_name_H-M  'P 1'
 
loop_
_symmetry_equiv_pos_as_xyz
 'x,y,z' 
 
loop_
_atom_site_label
_atom_site_type_symbol
_atom_site_fract_x
_atom_site_fract_y
_atom_site_fract_z
_atom_site_charge
C          C       0.17428   0.00000   0.25000   0.5530000000
C          C       0.32572   0.00000   0.25000   0.6300000000
C          C       0.00000   0.32572   0.25000   0.6300000000
C          C       0.00000   0.17428   0.25000   0.5540000000
C          C       0.25000   0.42427   0.00000   0.4760000000
C          C       0.25000   0.07573   0.00000   0.5000000000
C          C       0.07573   0.25000   0.00000   0.5000000000
C          C       0.42427   0.25000   0.00000   0.4770000000
C          C       0.46336   0.25000   0.00000  -0.1720000000
C          C       0.03665   0.25000   0.00000  -0.2230000000
C          C       0.25000   0.03664   0.00000  -0.2250000000
C          C       0.25000   0.46336   0.00000  -0.1690000000
C          C       0.00000   0.21335   0.25000   0.0400000000
C          C       0.00000   0.28664   0.25000  -0.1690000000
C          C       0.28664   0.00000   0.25000  -0.1690000000
C          C       0.21335   0.00000   0.25000   0.0400000000
C          C       0.48177   0.28186   0.00000   0.0190000000
C          C       0.01823   0.21814   0.00000   0.1300000000
C          C       0.28186   0.01823   0.00000   0.1270000000
C          C       0.21814   0.48177   0.00000   0.0150000000
C          C       0.28186   0.48177   0.00000  -0.1650000000
C          C       0.21814   0.01823   0.00000   0.0650000000
C          C       0.48177   0.21814   0.00000  -0.1650000000
C          C       0.01823   0.28186   0.00000   0.0650000000
C          C       0.26822   0.03186   0.25000   0.3080000000
C          C       0.23177   0.46814   0.25000  -0.1320000000
C          C       0.46814   0.26822   0.25000  -0.0030000000
C          C       0.03186   0.23177   0.25000  -0.1400000000
C          C       0.46814   0.23177   0.25000  -0.1340000000
C          C       0.03186   0.26822   0.25000   0.3070000000
C          C       0.26822   0.46814   0.25000  -0.0000000000
C          C       0.23177   0.03186   0.25000  -0.1400000000
C          C       0.11274   0.11274   0.15901  -0.0660000000
C          C       0.38726   0.38726   0.34099  -0.2870000000
C          C       0.11274   0.11274   0.34099  -0.0520000000
C          C       0.38726   0.38726   0.15901  -0.2830000000
C          C       0.11274   0.38726   0.15901  -0.0780000000
C          C       0.38726   0.11274   0.34099  -0.2790000000
C          C       0.11274   0.38726   0.34099  -0.0640000000
C          C       0.38726   0.11274   0.15901  -0.2760000000
C          C       0.13726   0.36274   0.40901  -0.2210000000
C          C       0.36274   0.13726   0.09100  -0.0880000000
C          C       0.13726   0.36274   0.09100  -0.2840000000
C          C       0.36274   0.13726   0.40901   0.0050000000
C          C       0.13726   0.13726   0.40901  -0.2180000000
C          C       0.36274   0.36274   0.09100  -0.0920000000
C          C       0.13726   0.13726   0.09100  -0.2850000000
C          C       0.36274   0.36274   0.40901   0.0010000000
C          C       0.34930   0.34930   0.44504   0.4830000000
C          C       0.15071   0.15071   0.05496   0.5880000000
C          C       0.34930   0.34930   0.05496   0.5070000000
C          C       0.15071   0.15071   0.44504   0.5720000000
C          C       0.34930   0.15071   0.44504   0.4850000000
C          C       0.15071   0.34930   0.05496   0.5830000000
C          C       0.34930   0.15071   0.05496   0.5100000000
C          C       0.15071   0.34930   0.44504   0.5690000000
C          C       0.40070   0.09929   0.19503   0.5860000000
C          C       0.09930   0.40070   0.30496   0.5220000000
C          C       0.40070   0.09930   0.30496   0.6010000000
C          C       0.09929   0.40070   0.19503   0.5130000000
C          C       0.40070   0.40070   0.19503   0.5840000000
C          C       0.09930   0.09930   0.30496   0.5220000000
C          C       0.40070   0.40070   0.30496   0.5990000000
C          C       0.09930   0.09929   0.19503   0.5130000000
C          C       0.09639   0.14142   0.14191  -0.0470000000
C          C       0.40361   0.35858   0.35809   0.3410000000
C          C       0.09639   0.14142   0.35809  -0.0160000000
C          C       0.40361   0.35858   0.14191   0.0710000000
C          C       0.14142   0.40361   0.14191  -0.1340000000
C          C       0.35858   0.09639   0.35809   0.1200000000
C          C       0.14142   0.40361   0.35809  -0.0210000000
C          C       0.35858   0.09639   0.14191   0.0770000000
C          C       0.14142   0.09639   0.35809  -0.1160000000
C          C       0.35858   0.40361   0.14191   0.2890000000
C          C       0.14142   0.09639   0.14191  -0.1340000000
C          C       0.35858   0.40361   0.35809   0.1140000000
C          C       0.09639   0.35858   0.35809  -0.1170000000
C          C       0.40361   0.14142   0.14191   0.2920000000
C          C       0.09639   0.35858   0.14191  -0.0460000000
C          C       0.40361   0.14142   0.35809   0.3440000000
C          C       0.15361   0.39142   0.10809   0.2930000000
C          C       0.34639   0.10858   0.39191  -0.0470000000
C          C       0.15361   0.39142   0.39191   0.0880000000
C          C       0.34639   0.10858   0.10809  -0.0470000000
C          C       0.10858   0.15361   0.10809   0.0840000000
C          C       0.39142   0.34639   0.39191  -0.1460000000
C          C       0.10858   0.15361   0.39191   0.0980000000
C          C       0.39142   0.34639   0.10809  -0.0550000000
C          C       0.10858   0.34639   0.39191   0.3340000000
C          C       0.39142   0.15361   0.10809  -0.1350000000
C          C       0.10858   0.34639   0.10809   0.0780000000
C          C       0.39142   0.15361   0.39191  -0.1420000000
C          C       0.15361   0.10858   0.39191   0.3410000000
C          C       0.34639   0.39142   0.10809  -0.1380000000
C          C       0.15361   0.10858   0.10809   0.3090000000
C          C       0.34639   0.39142   0.39191  -0.0560000000
N          N       0.42588   0.34624   0.34451  -0.3390000000
H          H       0.07412   0.15377   0.15549   0.0640000000
H          H       0.42588   0.34624   0.15549   0.0090000000
H          H       0.07412   0.15377   0.34451   0.0850000000
H          H       0.34624   0.07412   0.34451   0.0480000000
H          H       0.15377   0.42588   0.15549   0.0630000000
H          H       0.34624   0.07412   0.15549   0.0280000000
H          H       0.15377   0.42588   0.34451   0.0640000000
H          H       0.07412   0.34624   0.15549   0.0600000000
N          N       0.42588   0.15377   0.34451  -0.3390000000
H          H       0.07412   0.34624   0.34451   0.0990000000
N          N       0.42588   0.15377   0.15549  -0.3250000000
H          H       0.15377   0.07412   0.15549   0.0840000000
H          H       0.34624   0.42588   0.34451   0.0290000000
H          H       0.15377   0.07412   0.34451   0.1040000000
N          N       0.34624   0.42588   0.15549  -0.3250000000
H          H       0.40376   0.17588   0.09451   0.0650000000
N          N       0.09624   0.32412   0.40549  -0.3340000000
H          H       0.40377   0.17588   0.40549   0.1340000000
H          H       0.09624   0.32412   0.09451   0.0270000000
H          H       0.32412   0.40376   0.09451   0.0630000000
N          N       0.17588   0.09624   0.40549  -0.3350000000
H          H       0.32412   0.40377   0.40549   0.1140000000
N          N       0.17588   0.09624   0.09451  -0.3320000000
H          H       0.09624   0.17588   0.40549   0.0930000000
H          H       0.40376   0.32412   0.09451   0.0420000000
H          H       0.09624   0.17588   0.09451   0.0270000000
H          H       0.40377   0.32412   0.40549   0.1330000000
H          H       0.17588   0.40377   0.40549   0.0820000000
H          H       0.32412   0.09624   0.09451   0.0550000000
N          N       0.17588   0.40376   0.09451  -0.3270000000
H          H       0.32412   0.09624   0.40549   0.1250000000
H          H       0.21310   0.28690   0.00000   0.1540000000
H          H       0.28690   0.21310   0.00000   0.1540000000
H          H       0.21310   0.21310   0.00000   0.1540000000
H          H       0.28690   0.28690   0.00000   0.1540000000
H          H       0.46310   0.03690   0.25000   0.1980000000
H          H       0.03690   0.46310   0.25000   0.1990000000
H          H       0.46309   0.46310   0.25000   0.1550000000
H          H       0.03690   0.03690   0.25000   0.2410000000
H          H       0.19363   0.03286   0.00000  -0.0070000000
H          H       0.30636   0.46714   0.00000  -0.0020000000
H          H       0.03286   0.30636   0.00000  -0.0090000000
H          H       0.46714   0.19363   0.00000   0.0030000000
H          H       0.03286   0.19363   0.00000  -0.0270000000
N          N       0.19363   0.46714   0.00000  -0.2200000000
H          H       0.30636   0.03286   0.00000  -0.0330000000
N          N       0.05636   0.28286   0.25000  -0.3290000000
H          H       0.44363   0.21713   0.25000   0.0740000000
H          H       0.21713   0.05636   0.25000   0.0910000000
H          H       0.28286   0.44363   0.25000   0.0440000000
H          H       0.21713   0.44363   0.25000   0.0760000000
N          N       0.28286   0.05636   0.25000  -0.3290000000
H          H       0.05636   0.21713   0.25000   0.0920000000
H          H       0.44363   0.28286   0.25000   0.0430000000
O          O       0.15845   0.02956   0.25000  -0.7260000000
O          O       0.34155   0.47044   0.25000  -0.8300000000
O          O       0.02956   0.34155   0.25000  -0.7780000000
O          O       0.47044   0.15845   0.25000  -0.8190000000
O          O       0.02956   0.15845   0.25000  -0.7260000000
O          O       0.47044   0.34155   0.25000  -0.8340000000
O          O       0.15845   0.47044   0.25000  -0.8100000000
O          O       0.34155   0.02956   0.25000  -0.7750000000
O          O       0.09155   0.27955   0.00000  -0.8700000000
O          O       0.40845   0.22044   0.00000  -0.8670000000
O          O       0.22044   0.09155   0.00000  -0.8740000000
O          O       0.27956   0.40845   0.00000  -0.8680000000
O          O       0.22044   0.40845   0.00000  -0.8740000000
O          O       0.27955   0.09155   0.00000  -0.8660000000
O          O       0.09155   0.22044   0.00000  -0.8600000000
O          O       0.40845   0.27955   0.00000  -0.8790000000
O          O       0.34958   0.25000   0.46617  -0.9390000000
O          O       0.15043   0.25000   0.03383  -1.2840000000
O          O       0.34958   0.25000   0.03383  -1.2880000000
O          O       0.15043   0.25000   0.46617  -0.9400000000
O          O       0.25000   0.15043   0.46617  -0.9410000000
O          O       0.25000   0.34958   0.03383  -1.2900000000
O          O       0.25000   0.15043   0.03383  -1.2880000000
O          O       0.25000   0.34958   0.46617  -0.9370000000
O          O       0.00000   0.09957   0.21617  -1.1750000000
O          O      -0.00000   0.40042   0.28383  -1.1640000000
O          O      -0.00000   0.09957   0.28383  -1.1490000000
O          O       0.00000   0.40042   0.21617  -1.1870000000
O          O       0.40042  -0.00000   0.21617  -1.1900000000
O          O       0.09957  -0.00000   0.28383  -1.1470000000
O          O       0.40042  -0.00000   0.28383  -1.1600000000
O          O       0.09957  -0.00000   0.21617  -1.1740000000
O          O       0.11473   0.07301   0.20944  -0.7130000000
O          O       0.38528   0.42700   0.29056  -0.7490000000
O          O       0.11473   0.07301   0.29056  -0.7020000000
O          O       0.38528   0.42700   0.20944  -0.7830000000
O          O       0.07301   0.38527   0.20944  -0.7220000000
O          O       0.42700   0.11473   0.29056  -0.7740000000
O          O       0.07301   0.38527   0.29056  -0.7110000000
O          O       0.42700   0.11473   0.20944  -0.7800000000
O          O       0.07301   0.11473   0.29056  -0.7030000000
O          O       0.42700   0.38527   0.20944  -0.7590000000
O          O       0.07301   0.11473   0.20944  -0.7130000000
O          O       0.42700   0.38527   0.29056  -0.7780000000
O          O       0.11473   0.42700   0.29056  -0.7260000000
O          O       0.38527   0.07301   0.20944  -0.7400000000
O          O       0.11473   0.42700   0.20944  -0.7370000000
O          O       0.38527   0.07301   0.29056  -0.7300000000
O          O       0.13528   0.32300   0.04056  -0.8020000000
O          O       0.36473   0.17700   0.45944  -0.5080000000
O          O       0.13527   0.32301   0.45944  -0.5680000000
O          O       0.36473   0.17700   0.04056  -0.7880000000
O          O       0.17700   0.13528   0.04056  -0.8280000000
O          O       0.32301   0.36473   0.45944  -0.5100000000
O          O       0.17700   0.13528   0.45944  -0.5660000000
O          O       0.32300   0.36473   0.04056  -0.7910000000
O          O       0.17700   0.36473   0.45944  -0.5280000000
O          O       0.32300   0.13528   0.04056  -0.7850000000
O          O       0.17700   0.36473   0.04056  -0.8310000000
O          O       0.32301   0.13528   0.45944  -0.5050000000
O          O       0.13528   0.17700   0.45944  -0.5220000000
O          O       0.36473   0.32300   0.04056  -0.7920000000
O          O       0.13528   0.17700   0.04056  -0.7990000000
O          O       0.36473   0.32301   0.45944  -0.5100000000
O          O       0.05487   0.05487   0.25000  -1.1460000000
O          O       0.44512   0.44512   0.25000  -1.1860000000
O          O       0.05487   0.44512   0.25000  -1.1660000000
O          O       0.44512   0.05487   0.25000  -1.1660000000
O          O       0.19512   0.30487   0.00000  -1.3190000000
O          O       0.30487   0.19513   0.00000  -1.3200000000
O          O       0.19513   0.19513   0.00000  -1.3200000000
O          O       0.30487   0.30487   0.00000  -1.3200000000
Ti         Ti      0.39492   0.03594   0.25000   3.1050000000
Ti         Ti      0.10508   0.46407   0.25000   3.0960000000
Ti         Ti      0.46407   0.39492   0.25000   3.0960000000
Ti         Ti      0.03593   0.10508   0.25000   3.1040000000
Ti         Ti      0.46407   0.10508   0.25000   3.0960000000
Ti         Ti      0.03594   0.39492   0.25000   3.1040000000
Ti         Ti      0.39492   0.46407   0.25000   3.0960000000
Ti         Ti      0.10508   0.03594   0.25000   3.1040000000
Ti         Ti      0.14492   0.28594   0.00000   3.0730000000
Ti         Ti      0.35508   0.21406   0.00000   3.0720000000
Ti         Ti      0.21406   0.14492   0.00000   3.0720000000
Ti         Ti      0.28594   0.35508   0.00000   3.0720000000
Ti         Ti      0.21406   0.35508   0.00000   3.0730000000
Ti         Ti      0.28594   0.14492   0.00000   3.0720000000
Ti         Ti      0.14492   0.21406   0.00000   3.0730000000
Ti         Ti      0.35508   0.28594   0.00000   3.0720000000
H          H       0.18419   0.39483   0.07058   0.1640000000
H          H       0.18768   0.42385   0.10616   0.1040000000
H          H       0.32610   0.43764   0.14388   0.0970000000
H          H       0.35521   0.43424   0.17938   0.1570000000
H          H       0.43764   0.17390   0.14388   0.1000000000
H          H       0.43424   0.14479   0.17938   0.1580000000
H          H       0.18419   0.10516   0.07058   0.1720000000
H          H       0.18768   0.07615   0.10616   0.1270000000
H          H       0.18764   0.07610   0.39387   0.1940000000
H          H       0.18424   0.10521   0.42938   0.2420000000
H          H       0.07610   0.31235   0.39387   0.1900000000
H          H       0.10521   0.31576   0.42938   0.2400000000
H          H       0.43420   0.35517   0.32059   0.1720000000
H          H       0.43768   0.32615   0.35616   0.1400000000
H          H       0.43420   0.14483   0.32059   0.1740000000
H          H       0.43768   0.17386   0.35616   0.1430000000
H          H       0.16786   0.46905  -0.00191  -0.0050000000
H          H       0.19514   0.44035  -0.00664   0.0780000000
H          H       0.48195   0.32887  -0.00003  -0.0180000000
H          H       0.44052   0.30637   0.00346   0.0980000000
N          N       0.46714   0.30636   0.00000  -0.2340000000
H          H       0.05599   0.30866   0.25000   0.1890000000
H          H       0.07890   0.27030   0.25000   0.1300000000
H          H       0.30866   0.05599   0.25000   0.1900000000
H          H       0.27030   0.07890   0.25000   0.1300000000
C          C       0.67428   0.00000   0.25000   0.5530000000
C          C       0.82572   0.00000   0.25000   0.6300000000
C          C       0.50000   0.32572   0.25000   0.6300000000
C          C       0.50000   0.17428   0.25000   0.5540000000
C          C       0.75000   0.42427   0.00000   0.4760000000
C          C       0.75000   0.07573   0.00000   0.5000000000
C          C       0.57573   0.25000   0.00000   0.5000000000
C          C       0.92428   0.25000   0.00000   0.4770000000
C          C       0.96336   0.25000   0.00000  -0.1720000000
C          C       0.53665   0.25000   0.00000  -0.2230000000
C          C       0.75000   0.03664   0.00000  -0.2250000000
C          C       0.75000   0.46336   0.00000  -0.1690000000
C          C       0.50000   0.21335   0.25000   0.0400000000
C          C       0.50000   0.28664   0.25000  -0.1690000000
C          C       0.78664   0.00000   0.25000  -0.1690000000
C          C       0.71336   0.00000   0.25000   0.0400000000
C          C       0.98177   0.28186   0.00000   0.0190000000
C          C       0.51823   0.21814   0.00000   0.1300000000
C          C       0.78186   0.01823   0.00000   0.1270000000
C          C       0.71814   0.48177   0.00000   0.0150000000
C          C       0.78186   0.48177   0.00000  -0.1650000000
C          C       0.71814   0.01823   0.00000   0.0650000000
C          C       0.98177   0.21814   0.00000  -0.1650000000
C          C       0.51823   0.28186   0.00000   0.0650000000
C          C       0.76823   0.03186   0.25000   0.3080000000
C          C       0.73177   0.46814   0.25000  -0.1320000000
C          C       0.96814   0.26822   0.25000  -0.0030000000
C          C       0.53186   0.23177   0.25000  -0.1400000000
C          C       0.96814   0.23177   0.25000  -0.1340000000
C          C       0.53186   0.26822   0.25000   0.3070000000
C          C       0.76823   0.46814   0.25000  -0.0000000000
C          C       0.73177   0.03186   0.25000  -0.1400000000
C          C       0.61274   0.11274   0.15901  -0.0660000000
C          C       0.88726   0.38726   0.34099  -0.2870000000
C          C       0.61274   0.11274   0.34099  -0.0520000000
C          C       0.88726   0.38726   0.15901  -0.2830000000
C          C       0.61274   0.38726   0.15901  -0.0780000000
C          C       0.88726   0.11274   0.34099  -0.2790000000
C          C       0.61274   0.38726   0.34099  -0.0640000000
C          C       0.88726   0.11274   0.15901  -0.2760000000
C          C       0.63726   0.36274   0.40901  -0.2210000000
C          C       0.86274   0.13726   0.09100  -0.0880000000
C          C       0.63726   0.36274   0.09100  -0.2840000000
C          C       0.86274   0.13726   0.40901   0.0050000000
C          C       0.63726   0.13726   0.40901  -0.2180000000
C          C       0.86274   0.36274   0.09100  -0.0920000000
C          C       0.63726   0.13726   0.09100  -0.2850000000
C          C       0.86274   0.36274   0.40901   0.0010000000
C          C       0.84930   0.34930   0.44504   0.4830000000
C          C       0.65070   0.15071   0.05496   0.5880000000
C          C       0.84930   0.34930   0.05496   0.5070000000
C          C       0.65071   0.15071   0.44504   0.5720000000
C          C       0.84930   0.15071   0.44504   0.4850000000
C          C       0.65071   0.34930   0.05496   0.5830000000
C          C       0.84930   0.15071   0.05496   0.5100000000
C          C       0.65071   0.34930   0.44504   0.5690000000
C          C       0.90070   0.09929   0.19503   0.5860000000
C          C       0.59930   0.40070   0.30496   0.5220000000
C          C       0.90070   0.09930   0.30496   0.6010000000
C          C       0.59930   0.40070   0.19503   0.5130000000
C          C       0.90070   0.40070   0.19503   0.5840000000
C          C       0.59930   0.09930   0.30496   0.5220000000
C          C       0.90070   0.40070   0.30496   0.5990000000
C          C       0.59930   0.09929   0.19503   0.5130000000
C          C       0.59639   0.14142   0.14191  -0.0470000000
C          C       0.90361   0.35858   0.35809   0.3410000000
C          C       0.59639   0.14142   0.35809  -0.0160000000
C          C       0.90361   0.35858   0.14191   0.0710000000
C          C       0.64142   0.40361   0.14191  -0.1340000000
C          C       0.85858   0.09639   0.35809   0.1200000000
C          C       0.64142   0.40361   0.35809  -0.0210000000
C          C       0.85858   0.09639   0.14191   0.0770000000
C          C       0.64142   0.09639   0.35809  -0.1160000000
C          C       0.85858   0.40361   0.14191   0.2890000000
C          C       0.64142   0.09639   0.14191  -0.1340000000
C          C       0.85858   0.40361   0.35809   0.1140000000
C          C       0.59639   0.35858   0.35809  -0.1170000000
C          C       0.90361   0.14142   0.14191   0.2920000000
C          C       0.59639   0.35858   0.14191  -0.0460000000
C          C       0.90361   0.14142   0.35809   0.3440000000
C          C       0.65361   0.39142   0.10809   0.2930000000
C          C       0.84639   0.10858   0.39191  -0.0470000000
C          C       0.65361   0.39142   0.39191   0.0880000000
C          C       0.84639   0.10858   0.10809  -0.0470000000
C          C       0.60858   0.15361   0.10809   0.0840000000
C          C       0.89142   0.34639   0.39191  -0.1460000000
C          C       0.60858   0.15361   0.39191   0.0980000000
C          C       0.89142   0.34639   0.10809  -0.0550000000
C          C       0.60858   0.34639   0.39191   0.3340000000
C          C       0.89142   0.15361   0.10809  -0.1350000000
C          C       0.60858   0.34639   0.10809   0.0780000000
C          C       0.89142   0.15361   0.39191  -0.1420000000
C          C       0.65361   0.10858   0.39191   0.3410000000
C          C       0.84639   0.39142   0.10809  -0.1380000000
C          C       0.65361   0.10858   0.10809   0.3090000000
C          C       0.84639   0.39142   0.39191  -0.0560000000
N          N       0.92588   0.34624   0.34451  -0.3390000000
H          H       0.57412   0.15377   0.15549   0.0640000000
H          H       0.92588   0.34624   0.15549   0.0090000000
H          H       0.57412   0.15377   0.34451   0.0850000000
H          H       0.84624   0.07412   0.34451   0.0480000000
H          H       0.65377   0.42588   0.15549   0.0630000000
H          H       0.84624   0.07412   0.15549   0.0280000000
H          H       0.65377   0.42588   0.34451   0.0640000000
H          H       0.57412   0.34624   0.15549   0.0600000000
N          N       0.92588   0.15377   0.34451  -0.3390000000
H          H       0.57412   0.34624   0.34451   0.0990000000
N          N       0.92588   0.15377   0.15549  -0.3250000000
H          H       0.65377   0.07412   0.15549   0.0840000000
H          H       0.84624   0.42588   0.34451   0.0290000000
H          H       0.65377   0.07412   0.34451   0.1040000000
N          N       0.84624   0.42588   0.15549  -0.3250000000
H          H       0.90377   0.17588   0.09451   0.0650000000
N          N       0.59624   0.32412   0.40549  -0.3340000000
H          H       0.90377   0.17588   0.40549   0.1340000000
H          H       0.59624   0.32412   0.09451   0.0270000000
H          H       0.82412   0.40376   0.09451   0.0630000000
N          N       0.67588   0.09624   0.40549  -0.3350000000
H          H       0.82412   0.40377   0.40549   0.1140000000
N          N       0.67588   0.09624   0.09451  -0.3320000000
H          H       0.59624   0.17588   0.40549   0.0930000000
H          H       0.90377   0.32412   0.09451   0.0420000000
H          H       0.59624   0.17588   0.09451   0.0270000000
H          H       0.90377   0.32412   0.40549   0.1330000000
H          H       0.67588   0.40377   0.40549   0.0820000000
H          H       0.82412   0.09624   0.09451   0.0550000000
N          N       0.67588   0.40376   0.09451  -0.3270000000
H          H       0.82412   0.09624   0.40549   0.1250000000
H          H       0.71310   0.28690   0.00000   0.1540000000
H          H       0.78690   0.21310   0.00000   0.1540000000
H          H       0.71310   0.21310   0.00000   0.1540000000
H          H       0.78690   0.28690   0.00000   0.1540000000
H          H       0.96310   0.03690   0.25000   0.1980000000
H          H       0.53690   0.46310   0.25000   0.1990000000
H          H       0.96310   0.46310   0.25000   0.1550000000
H          H       0.53690   0.03690   0.25000   0.2410000000
H          H       0.69363   0.03286   0.00000  -0.0070000000
H          H       0.80636   0.46714   0.00000  -0.0020000000
H          H       0.53287   0.30636   0.00000  -0.0090000000
H          H       0.96714   0.19363   0.00000   0.0030000000
H          H       0.53287   0.19363   0.00000  -0.0270000000
N          N       0.69363   0.46714   0.00000  -0.2200000000
H          H       0.80636   0.03286   0.00000  -0.0330000000
N          N       0.55636   0.28286   0.25000  -0.3290000000
H          H       0.94363   0.21713   0.25000   0.0740000000
H          H       0.71714   0.05636   0.25000   0.0910000000
H          H       0.78286   0.44363   0.25000   0.0440000000
H          H       0.71714   0.44363   0.25000   0.0760000000
N          N       0.78286   0.05636   0.25000  -0.3290000000
H          H       0.55636   0.21713   0.25000   0.0920000000
H          H       0.94363   0.28286   0.25000   0.0430000000
O          O       0.65845   0.02956   0.25000  -0.7260000000
O          O       0.84155   0.47044   0.25000  -0.8300000000
O          O       0.52956   0.34155   0.25000  -0.7780000000
O          O       0.97044   0.15845   0.25000  -0.8190000000
O          O       0.52956   0.15845   0.25000  -0.7260000000
O          O       0.97044   0.34155   0.25000  -0.8340000000
O          O       0.65845   0.47044   0.25000  -0.8100000000
O          O       0.84155   0.02956   0.25000  -0.7750000000
O          O       0.59155   0.27955   0.00000  -0.8700000000
O          O       0.90845   0.22044   0.00000  -0.8670000000
O          O       0.72044   0.09155   0.00000  -0.8740000000
O          O       0.77956   0.40845   0.00000  -0.8680000000
O          O       0.72044   0.40845   0.00000  -0.8740000000
O          O       0.77956   0.09155   0.00000  -0.8660000000
O          O       0.59155   0.22044   0.00000  -0.8600000000
O          O       0.90845   0.27955   0.00000  -0.8790000000
O          O       0.84957   0.25000   0.46617  -0.9390000000
O          O       0.65043   0.25000   0.03383  -1.2840000000
O          O       0.84957   0.25000   0.03383  -1.2880000000
O          O       0.65043   0.25000   0.46617  -0.9400000000
O          O       0.75000   0.15043   0.46617  -0.9410000000
O          O       0.75000   0.34958   0.03383  -1.2900000000
O          O       0.75000   0.15043   0.03383  -1.2880000000
O          O       0.75000   0.34958   0.46617  -0.9370000000
O          O       0.50000   0.09957   0.21617  -1.1750000000
O          O       0.50000   0.40042   0.28383  -1.1640000000
O          O       0.50000   0.09957   0.28383  -1.1490000000
O          O       0.50000   0.40042   0.21617  -1.1870000000
O          O       0.90043  -0.00000   0.21617  -1.1900000000
O          O       0.59957  -0.00000   0.28383  -1.1470000000
O          O       0.90043  -0.00000   0.28383  -1.1600000000
O          O       0.59957  -0.00000   0.21617  -1.1740000000
O          O       0.61472   0.07301   0.20944  -0.7130000000
O          O       0.88528   0.42700   0.29056  -0.7490000000
O          O       0.61472   0.07301   0.29056  -0.7020000000
O          O       0.88528   0.42700   0.20944  -0.7830000000
O          O       0.57301   0.38527   0.20944  -0.7220000000
O          O       0.92700   0.11473   0.29056  -0.7740000000
O          O       0.57301   0.38527   0.29056  -0.7110000000
O          O       0.92700   0.11473   0.20944  -0.7800000000
O          O       0.57301   0.11473   0.29056  -0.7030000000
O          O       0.92700   0.38527   0.20944  -0.7590000000
O          O       0.57301   0.11473   0.20944  -0.7130000000
O          O       0.92700   0.38527   0.29056  -0.7780000000
O          O       0.61473   0.42700   0.29056  -0.7260000000
O          O       0.88527   0.07301   0.20944  -0.7400000000
O          O       0.61473   0.42700   0.20944  -0.7370000000
O          O       0.88527   0.07301   0.29056  -0.7300000000
O          O       0.63528   0.32300   0.04056  -0.8020000000
O          O       0.86473   0.17700   0.45944  -0.5080000000
O          O       0.63528   0.32301   0.45944  -0.5680000000
O          O       0.86473   0.17700   0.04056  -0.7880000000
O          O       0.67700   0.13528   0.04056  -0.8280000000
O          O       0.82301   0.36473   0.45944  -0.5100000000
O          O       0.67700   0.13528   0.45944  -0.5660000000
O          O       0.82301   0.36473   0.04056  -0.7910000000
O          O       0.67700   0.36473   0.45944  -0.5280000000
O          O       0.82301   0.13528   0.04056  -0.7850000000
O          O       0.67700   0.36473   0.04056  -0.8310000000
O          O       0.82301   0.13528   0.45944  -0.5050000000
O          O       0.63528   0.17700   0.45944  -0.5220000000
O          O       0.86473   0.32300   0.04056  -0.7920000000
O          O       0.63528   0.17700   0.04056  -0.7990000000
O          O       0.86473   0.32301   0.45944  -0.5100000000
O          O       0.55487   0.05487   0.25000  -1.1460000000
O          O       0.94512   0.44512   0.25000  -1.1860000000
O          O       0.55487   0.44512   0.25000  -1.1660000000
O          O       0.94512   0.05487   0.25000  -1.1660000000
O          O       0.69512   0.30487   0.00000  -1.3190000000
O          O       0.80487   0.19513   0.00000  -1.3200000000
O          O       0.69512   0.19513   0.00000  -1.3200000000
O          O       0.80487   0.30487   0.00000  -1.3200000000
Ti         Ti      0.89492   0.03594   0.25000   3.1050000000
Ti         Ti      0.60508   0.46407   0.25000   3.0960000000
Ti         Ti      0.96407   0.39492   0.25000   3.0960000000
Ti         Ti      0.53594   0.10508   0.25000   3.1040000000
Ti         Ti      0.96407   0.10508   0.25000   3.0960000000
Ti         Ti      0.53594   0.39492   0.25000   3.1040000000
Ti         Ti      0.89492   0.46407   0.25000   3.0960000000
Ti         Ti      0.60508   0.03594   0.25000   3.1040000000
Ti         Ti      0.64492   0.28594   0.00000   3.0730000000
Ti         Ti      0.85508   0.21406   0.00000   3.0720000000
Ti         Ti      0.71406   0.14492   0.00000   3.0720000000
Ti         Ti      0.78594   0.35508   0.00000   3.0720000000
Ti         Ti      0.71406   0.35508   0.00000   3.0730000000
Ti         Ti      0.78594   0.14492   0.00000   3.0720000000
Ti         Ti      0.64492   0.21406   0.00000   3.0730000000
Ti         Ti      0.85508   0.28594   0.00000   3.0720000000
H          H       0.68419   0.39483   0.07058   0.1640000000
H          H       0.68769   0.42385   0.10616   0.1040000000
H          H       0.82610   0.43764   0.14388   0.0970000000
H          H       0.85521   0.43424   0.17938   0.1570000000
H          H       0.93764   0.17390   0.14388   0.1000000000
H          H       0.93424   0.14479   0.17938   0.1580000000
H          H       0.68419   0.10516   0.07058   0.1720000000
H          H       0.68769   0.07615   0.10616   0.1270000000
H          H       0.68764   0.07610   0.39387   0.1940000000
H          H       0.68424   0.10521   0.42938   0.2420000000
H          H       0.57610   0.31235   0.39387   0.1900000000
H          H       0.60521   0.31576   0.42938   0.2400000000
H          H       0.93420   0.35517   0.32059   0.1720000000
H          H       0.93769   0.32615   0.35616   0.1400000000
H          H       0.93420   0.14483   0.32059   0.1740000000
H          H       0.93769   0.17386   0.35616   0.1430000000
H          H       0.66786   0.46905  -0.00191  -0.0050000000
H          H       0.69514   0.44035  -0.00664   0.0780000000
H          H       0.98196   0.32887  -0.00003  -0.0180000000
H          H       0.94052   0.30637   0.00346   0.0980000000
N          N       0.96714   0.30636   0.00000  -0.2340000000
H          H       0.55599   0.30866   0.25000   0.1890000000
H          H       0.57890   0.27030   0.25000   0.1300000000
H          H       0.80866   0.05599   0.25000   0.1900000000
H          H       0.77029   0.07890   0.25000   0.1300000000
C          C       0.17428   0.50000   0.25000   0.5530000000
C          C       0.32572   0.50000   0.25000   0.6300000000
C          C       0.00000   0.82572   0.25000   0.6300000000
C          C       0.00000   0.67428   0.25000   0.5540000000
C          C       0.25000   0.92428   0.00000   0.4760000000
C          C       0.25000   0.57573   0.00000   0.5000000000
C          C       0.07573   0.75000   0.00000   0.5000000000
C          C       0.42427   0.75000   0.00000   0.4770000000
C          C       0.46336   0.75000   0.00000  -0.1720000000
C          C       0.03664   0.75000   0.00000  -0.2230000000
C          C       0.25000   0.53664   0.00000  -0.2250000000
C          C       0.25000   0.96336   0.00000  -0.1690000000
C          C       0.00000   0.71336   0.25000   0.0400000000
C          C       0.00000   0.78664   0.25000  -0.1690000000
C          C       0.28664   0.50000   0.25000  -0.1690000000
C          C       0.21335   0.50000   0.25000   0.0400000000
C          C       0.48177   0.78186   0.00000   0.0190000000
C          C       0.01823   0.71814   0.00000   0.1300000000
C          C       0.28186   0.51823   0.00000   0.1270000000
C          C       0.21814   0.98177   0.00000   0.0150000000
C          C       0.28186   0.98177   0.00000  -0.1650000000
C          C       0.21814   0.51823   0.00000   0.0650000000
C          C       0.48177   0.71814   0.00000  -0.1650000000
C          C       0.01823   0.78186   0.00000   0.0650000000
C          C       0.26822   0.53186   0.25000   0.3080000000
C          C       0.23177   0.96814   0.25000  -0.1320000000
C          C       0.46814   0.76823   0.25000  -0.0030000000
C          C       0.03186   0.73177   0.25000  -0.1400000000
C          C       0.46814   0.73177   0.25000  -0.1340000000
C          C       0.03186   0.76823   0.25000   0.3070000000
C          C       0.26823   0.96814   0.25000  -0.0000000000
C          C       0.23177   0.53186   0.25000  -0.1400000000
C          C       0.11274   0.61274   0.15901  -0.0660000000
C          C       0.38726   0.88726   0.34099  -0.2870000000
C          C       0.11274   0.61274   0.34099  -0.0520000000
C          C       0.38726   0.88726   0.15901  -0.2830000000
C          C       0.11274   0.88726   0.15901  -0.0780000000
C          C       0.38726   0.61274   0.34099  -0.2790000000
C          C       0.11274   0.88726   0.34099  -0.0640000000
C          C       0.38726   0.61274   0.15901  -0.2760000000
C          C       0.13726   0.86274   0.40901  -0.2210000000
C          C       0.36274   0.63726   0.09100  -0.0880000000
C          C       0.13726   0.86274   0.09100  -0.2840000000
C          C       0.36274   0.63726   0.40901   0.0050000000
C          C       0.13726   0.63726   0.40901  -0.2180000000
C          C       0.36274   0.86274   0.09100  -0.0920000000
C          C       0.13726   0.63726   0.09100  -0.2850000000
C          C       0.36274   0.86274   0.40901   0.0010000000
C          C       0.34930   0.84930   0.44504   0.4830000000
C          C       0.15071   0.65070   0.05496   0.5880000000
C          C       0.34930   0.84930   0.05496   0.5070000000
C          C       0.15071   0.65071   0.44504   0.5720000000
C          C       0.34930   0.65071   0.44504   0.4850000000
C          C       0.15071   0.84930   0.05496   0.5830000000
C          C       0.34930   0.65070   0.05496   0.5100000000
C          C       0.15071   0.84930   0.44504   0.5690000000
C          C       0.40070   0.59930   0.19503   0.5860000000
C          C       0.09930   0.90070   0.30496   0.5220000000
C          C       0.40070   0.59930   0.30496   0.6010000000
C          C       0.09929   0.90070   0.19503   0.5130000000
C          C       0.40070   0.90070   0.19503   0.5840000000
C          C       0.09930   0.59930   0.30496   0.5220000000
C          C       0.40070   0.90070   0.30496   0.5990000000
C          C       0.09929   0.59930   0.19503   0.5130000000
C          C       0.09639   0.64142   0.14191  -0.0470000000
C          C       0.40361   0.85858   0.35809   0.3410000000
C          C       0.09639   0.64142   0.35809  -0.0160000000
C          C       0.40361   0.85858   0.14191   0.0710000000
C          C       0.14142   0.90361   0.14191  -0.1340000000
C          C       0.35858   0.59639   0.35809   0.1200000000
C          C       0.14142   0.90361   0.35809  -0.0210000000
C          C       0.35858   0.59639   0.14191   0.0770000000
C          C       0.14142   0.59639   0.35809  -0.1160000000
C          C       0.35858   0.90361   0.14191   0.2890000000
C          C       0.14142   0.59639   0.14191  -0.1340000000
C          C       0.35858   0.90361   0.35809   0.1140000000
C          C       0.09639   0.85858   0.35809  -0.1170000000
C          C       0.40361   0.64142   0.14191   0.2920000000
C          C       0.09639   0.85858   0.14191  -0.0460000000
C          C       0.40361   0.64142   0.35809   0.3440000000
C          C       0.15361   0.89142   0.10809   0.2930000000
C          C       0.34639   0.60858   0.39191  -0.0470000000
C          C       0.15361   0.89142   0.39191   0.0880000000
C          C       0.34639   0.60858   0.10809  -0.0470000000
C          C       0.10858   0.65361   0.10809   0.0840000000
C          C       0.39142   0.84639   0.39191  -0.1460000000
C          C       0.10858   0.65361   0.39191   0.0980000000
C          C       0.39142   0.84639   0.10809  -0.0550000000
C          C       0.10858   0.84639   0.39191   0.3340000000
C          C       0.39142   0.65361   0.10809  -0.1350000000
C          C       0.10858   0.84639   0.10809   0.0780000000
C          C       0.39142   0.65361   0.39191  -0.1420000000
C          C       0.15361   0.60858   0.39191   0.3410000000
C          C       0.34639   0.89142   0.10809  -0.1380000000
C          C       0.15361   0.60858   0.10809   0.3090000000
C          C       0.34639   0.89142   0.39191  -0.0560000000
N          N       0.42588   0.84624   0.34451  -0.3390000000
H          H       0.07412   0.65377   0.15549   0.0640000000
H          H       0.42588   0.84624   0.15549   0.0090000000
H          H       0.07412   0.65377   0.34451   0.0850000000
H          H       0.34624   0.57412   0.34451   0.0480000000
H          H       0.15377   0.92588   0.15549   0.0630000000
H          H       0.34624   0.57412   0.15549   0.0280000000
H          H       0.15377   0.92588   0.34451   0.0640000000
H          H       0.07412   0.84624   0.15549   0.0600000000
N          N       0.42588   0.65377   0.34451  -0.3390000000
H          H       0.07412   0.84624   0.34451   0.0990000000
N          N       0.42588   0.65377   0.15549  -0.3250000000
H          H       0.15377   0.57412   0.15549   0.0840000000
H          H       0.34624   0.92588   0.34451   0.0290000000
H          H       0.15377   0.57412   0.34451   0.1040000000
N          N       0.34624   0.92588   0.15549  -0.3250000000
H          H       0.40376   0.67588   0.09451   0.0650000000
N          N       0.09624   0.82412   0.40549  -0.3340000000
H          H       0.40377   0.67588   0.40549   0.1340000000
H          H       0.09624   0.82412   0.09451   0.0270000000
H          H       0.32412   0.90377   0.09451   0.0630000000
N          N       0.17588   0.59624   0.40549  -0.3350000000
H          H       0.32412   0.90377   0.40549   0.1140000000
N          N       0.17588   0.59624   0.09451  -0.3320000000
H          H       0.09624   0.67588   0.40549   0.0930000000
H          H       0.40376   0.82412   0.09451   0.0420000000
H          H       0.09624   0.67588   0.09451   0.0270000000
H          H       0.40377   0.82412   0.40549   0.1330000000
H          H       0.17588   0.90377   0.40549   0.0820000000
H          H       0.32412   0.59624   0.09451   0.0550000000
N          N       0.17588   0.90377   0.09451  -0.3270000000
H          H       0.32412   0.59624   0.40549   0.1250000000
H          H       0.21310   0.78690   0.00000   0.1540000000
H          H       0.28690   0.71310   0.00000   0.1540000000
H          H       0.21310   0.71310   0.00000   0.1540000000
H          H       0.28690   0.78690   0.00000   0.1540000000
H          H       0.46309   0.53690   0.25000   0.1980000000
H          H       0.03690   0.96310   0.25000   0.1990000000
H          H       0.46309   0.96310   0.25000   0.1550000000
H          H       0.03690   0.53690   0.25000   0.2410000000
H          H       0.19363   0.53286   0.00000  -0.0070000000
H          H       0.30636   0.96714   0.00000  -0.0020000000
H          H       0.03286   0.80636   0.00000  -0.0090000000
H          H       0.46714   0.69363   0.00000   0.0030000000
H          H       0.03286   0.69363   0.00000  -0.0270000000
N          N       0.19363   0.96714   0.00000  -0.2200000000
H          H       0.30636   0.53286   0.00000  -0.0330000000
N          N       0.05636   0.78286   0.25000  -0.3290000000
H          H       0.44363   0.71714   0.25000   0.0740000000
H          H       0.21713   0.55636   0.25000   0.0910000000
H          H       0.28286   0.94363   0.25000   0.0440000000
H          H       0.21714   0.94363   0.25000   0.0760000000
N          N       0.28286   0.55636   0.25000  -0.3290000000
H          H       0.05637   0.71714   0.25000   0.0920000000
H          H       0.44363   0.78286   0.25000   0.0430000000
O          O       0.15845   0.52956   0.25000  -0.7260000000
O          O       0.34155   0.97044   0.25000  -0.8300000000
O          O       0.02956   0.84155   0.25000  -0.7780000000
O          O       0.47044   0.65845   0.25000  -0.8190000000
O          O       0.02956   0.65845   0.25000  -0.7260000000
O          O       0.47044   0.84155   0.25000  -0.8340000000
O          O       0.15845   0.97044   0.25000  -0.8100000000
O          O       0.34155   0.52956   0.25000  -0.7750000000
O          O       0.09155   0.77956   0.00000  -0.8700000000
O          O       0.40845   0.72044   0.00000  -0.8670000000
O          O       0.22044   0.59155   0.00000  -0.8740000000
O          O       0.27956   0.90845   0.00000  -0.8680000000
O          O       0.22044   0.90845   0.00000  -0.8740000000
O          O       0.27955   0.59155   0.00000  -0.8660000000
O          O       0.09155   0.72044   0.00000  -0.8600000000
O          O       0.40845   0.77956   0.00000  -0.8790000000
O          O       0.34958   0.75000   0.46617  -0.9390000000
O          O       0.15043   0.75000   0.03383  -1.2840000000
O          O       0.34958   0.75000   0.03383  -1.2880000000
O          O       0.15043   0.75000   0.46617  -0.9400000000
O          O       0.25000   0.65043   0.46617  -0.9410000000
O          O       0.25000   0.84957   0.03383  -1.2900000000
O          O       0.25000   0.65043   0.03383  -1.2880000000
O          O       0.25000   0.84957   0.46617  -0.9370000000
O          O       0.00000   0.59957   0.21617  -1.1750000000
O          O       0.00000   0.90043   0.28383  -1.1640000000
O          O       0.00000   0.59957   0.28383  -1.1490000000
O          O       0.00000   0.90043   0.21617  -1.1870000000
O          O       0.40042   0.50000   0.21617  -1.1900000000
O          O       0.09958   0.50000   0.28383  -1.1470000000
O          O       0.40042   0.50000   0.28383  -1.1600000000
O          O       0.09958   0.50000   0.21617  -1.1740000000
O          O       0.11472   0.57301   0.20944  -0.7130000000
O          O       0.38528   0.92700   0.29056  -0.7490000000
O          O       0.11472   0.57301   0.29056  -0.7020000000
O          O       0.38528   0.92700   0.20944  -0.7830000000
O          O       0.07301   0.88527   0.20944  -0.7220000000
O          O       0.42700   0.61472   0.29056  -0.7740000000
O          O       0.07301   0.88527   0.29056  -0.7110000000
O          O       0.42700   0.61472   0.20944  -0.7800000000
O          O       0.07301   0.61472   0.29056  -0.7030000000
O          O       0.42700   0.88527   0.20944  -0.7590000000
O          O       0.07301   0.61472   0.20944  -0.7130000000
O          O       0.42700   0.88527   0.29056  -0.7780000000
O          O       0.11473   0.92700   0.29056  -0.7260000000
O          O       0.38527   0.57301   0.20944  -0.7400000000
O          O       0.11473   0.92700   0.20944  -0.7370000000
O          O       0.38527   0.57301   0.29056  -0.7300000000
O          O       0.13527   0.82301   0.04056  -0.8020000000
O          O       0.36473   0.67700   0.45944  -0.5080000000
O          O       0.13527   0.82301   0.45944  -0.5680000000
O          O       0.36473   0.67700   0.04056  -0.7880000000
O          O       0.17700   0.63528   0.04056  -0.8280000000
O          O       0.32301   0.86473   0.45944  -0.5100000000
O          O       0.17700   0.63528   0.45944  -0.5660000000
O          O       0.32300   0.86473   0.04056  -0.7910000000
O          O       0.17699   0.86473   0.45944  -0.5280000000
O          O       0.32300   0.63528   0.04056  -0.7850000000
O          O       0.17700   0.86473   0.04056  -0.8310000000
O          O       0.32301   0.63528   0.45944  -0.5050000000
O          O       0.13527   0.67700   0.45944  -0.5220000000
O          O       0.36473   0.82301   0.04056  -0.7920000000
O          O       0.13528   0.67700   0.04056  -0.7990000000
O          O       0.36473   0.82301   0.45944  -0.5100000000
O          O       0.05487   0.55487   0.25000  -1.1460000000
O          O       0.44512   0.94512   0.25000  -1.1860000000
O          O       0.05487   0.94512   0.25000  -1.1660000000
O          O       0.44512   0.55487   0.25000  -1.1660000000
O          O       0.19512   0.80487   0.00000  -1.3190000000
O          O       0.30487   0.69512   0.00000  -1.3200000000
O          O       0.19512   0.69512   0.00000  -1.3200000000
O          O       0.30487   0.80487   0.00000  -1.3200000000
Ti         Ti      0.39492   0.53593   0.25000   3.1050000000
Ti         Ti      0.10508   0.96407   0.25000   3.0960000000
Ti         Ti      0.46407   0.89492   0.25000   3.0960000000
Ti         Ti      0.03594   0.60508   0.25000   3.1040000000
Ti         Ti      0.46407   0.60508   0.25000   3.0960000000
Ti         Ti      0.03593   0.89492   0.25000   3.1040000000
Ti         Ti      0.39492   0.96407   0.25000   3.0960000000
Ti         Ti      0.10508   0.53593   0.25000   3.1040000000
Ti         Ti      0.14492   0.78594   0.00000   3.0730000000
Ti         Ti      0.35508   0.71406   0.00000   3.0720000000
Ti         Ti      0.21407   0.64492   0.00000   3.0720000000
Ti         Ti      0.28593   0.85508   0.00000   3.0720000000
Ti         Ti      0.21406   0.85508   0.00000   3.0730000000
Ti         Ti      0.28593   0.64492   0.00000   3.0720000000
Ti         Ti      0.14492   0.71406   0.00000   3.0730000000
Ti         Ti      0.35508   0.78594   0.00000   3.0720000000
H          H       0.18419   0.89483   0.07058   0.1640000000
H          H       0.18768   0.92385   0.10616   0.1040000000
H          H       0.32610   0.93764   0.14388   0.0970000000
H          H       0.35521   0.93424   0.17938   0.1570000000
H          H       0.43764   0.67390   0.14388   0.1000000000
H          H       0.43424   0.64479   0.17938   0.1580000000
H          H       0.18419   0.60517   0.07058   0.1720000000
H          H       0.18768   0.57615   0.10616   0.1270000000
H          H       0.18764   0.57610   0.39387   0.1940000000
H          H       0.18424   0.60521   0.42938   0.2420000000
H          H       0.07610   0.81236   0.39387   0.1900000000
H          H       0.10521   0.81576   0.42938   0.2400000000
H          H       0.43419   0.85517   0.32059   0.1720000000
H          H       0.43768   0.82615   0.35616   0.1400000000
H          H       0.43419   0.64484   0.32059   0.1740000000
H          H       0.43768   0.67386   0.35616   0.1430000000
H          H       0.16786   0.96905  -0.00191  -0.0050000000
H          H       0.19514   0.94036  -0.00664   0.0780000000
H          H       0.48195   0.82888  -0.00003  -0.0180000000
H          H       0.44052   0.80637   0.00346   0.0980000000
N          N       0.46714   0.80636   0.00000  -0.2340000000
H          H       0.05599   0.80866   0.25000   0.1890000000
H          H       0.07890   0.77029   0.25000   0.1300000000
H          H       0.30866   0.55599   0.25000   0.1900000000
H          H       0.27030   0.57890   0.25000   0.1300000000
C          C       0.67428   0.50000   0.25000   0.5530000000
C          C       0.82572   0.50000   0.25000   0.6300000000
C          C       0.50000   0.82572   0.25000   0.6300000000
C          C       0.50000   0.67428   0.25000   0.5540000000
C          C       0.75000   0.92428   0.00000   0.4760000000
C          C       0.75000   0.57573   0.00000   0.5000000000
C          C       0.57573   0.75000   0.00000   0.5000000000
C          C       0.92428   0.75000   0.00000   0.4770000000
C          C       0.96336   0.75000   0.00000  -0.1720000000
C          C       0.53665   0.75000   0.00000  -0.2230000000
C          C       0.75000   0.53664   0.00000  -0.2250000000
C          C       0.75000   0.96336   0.00000  -0.1690000000
C          C       0.50000   0.71336   0.25000   0.0400000000
C          C       0.50000   0.78664   0.25000  -0.1690000000
C          C       0.78664   0.50000   0.25000  -0.1690000000
C          C       0.71336   0.50000   0.25000   0.0400000000
C          C       0.98177   0.78186   0.00000   0.0190000000
C          C       0.51823   0.71814   0.00000   0.1300000000
C          C       0.78186   0.51823   0.00000   0.1270000000
C          C       0.71814   0.98177   0.00000   0.0150000000
C          C       0.78186   0.98177   0.00000  -0.1650000000
C          C       0.71814   0.51823   0.00000   0.0650000000
C          C       0.98177   0.71814   0.00000  -0.1650000000
C          C       0.51823   0.78186   0.00000   0.0650000000
C          C       0.76823   0.53186   0.25000   0.3080000000
C          C       0.73177   0.96814   0.25000  -0.1320000000
C          C       0.96814   0.76823   0.25000  -0.0030000000
C          C       0.53186   0.73177   0.25000  -0.1400000000
C          C       0.96814   0.73177   0.25000  -0.1340000000
C          C       0.53186   0.76823   0.25000   0.3070000000
C          C       0.76822   0.96814   0.25000  -0.0000000000
C          C       0.73177   0.53186   0.25000  -0.1400000000
C          C       0.61274   0.61274   0.15901  -0.0660000000
C          C       0.88726   0.88726   0.34099  -0.2870000000
C          C       0.61274   0.61274   0.34099  -0.0520000000
C          C       0.88726   0.88726   0.15901  -0.2830000000
C          C       0.61274   0.88726   0.15901  -0.0780000000
C          C       0.88726   0.61274   0.34099  -0.2790000000
C          C       0.61274   0.88726   0.34099  -0.0640000000
C          C       0.88726   0.61274   0.15901  -0.2760000000
C          C       0.63726   0.86274   0.40901  -0.2210000000
C          C       0.86274   0.63726   0.09100  -0.0880000000
C          C       0.63726   0.86274   0.09100  -0.2840000000
C          C       0.86274   0.63726   0.40901   0.0050000000
C          C       0.63726   0.63726   0.40901  -0.2180000000
C          C       0.86274   0.86274   0.09100  -0.0920000000
C          C       0.63726   0.63726   0.09100  -0.2850000000
C          C       0.86274   0.86274   0.40901   0.0010000000
C          C       0.84930   0.84930   0.44504   0.4830000000
C          C       0.65070   0.65070   0.05496   0.5880000000
C          C       0.84930   0.84930   0.05496   0.5070000000
C          C       0.65071   0.65071   0.44504   0.5720000000
C          C       0.84930   0.65071   0.44504   0.4850000000
C          C       0.65071   0.84930   0.05496   0.5830000000
C          C       0.84930   0.65070   0.05496   0.5100000000
C          C       0.65071   0.84930   0.44504   0.5690000000
C          C       0.90070   0.59930   0.19503   0.5860000000
C          C       0.59930   0.90070   0.30496   0.5220000000
C          C       0.90070   0.59930   0.30496   0.6010000000
C          C       0.59930   0.90070   0.19503   0.5130000000
C          C       0.90070   0.90070   0.19503   0.5840000000
C          C       0.59930   0.59930   0.30496   0.5220000000
C          C       0.90070   0.90070   0.30496   0.5990000000
C          C       0.59930   0.59930   0.19503   0.5130000000
C          C       0.59639   0.64142   0.14191  -0.0470000000
C          C       0.90361   0.85858   0.35809   0.3410000000
C          C       0.59639   0.64142   0.35809  -0.0160000000
C          C       0.90361   0.85858   0.14191   0.0710000000
C          C       0.64142   0.90361   0.14191  -0.1340000000
C          C       0.85858   0.59639   0.35809   0.1200000000
C          C       0.64142   0.90361   0.35809  -0.0210000000
C          C       0.85858   0.59639   0.14191   0.0770000000
C          C       0.64142   0.59639   0.35809  -0.1160000000
C          C       0.85858   0.90361   0.14191   0.2890000000
C          C       0.64142   0.59639   0.14191  -0.1340000000
C          C       0.85858   0.90361   0.35809   0.1140000000
C          C       0.59639   0.85858   0.35809  -0.1170000000
C          C       0.90361   0.64142   0.14191   0.2920000000
C          C       0.59639   0.85858   0.14191  -0.0460000000
C          C       0.90361   0.64142   0.35809   0.3440000000
C          C       0.65361   0.89142   0.10809   0.2930000000
C          C       0.84639   0.60858   0.39191  -0.0470000000
C          C       0.65361   0.89142   0.39191   0.0880000000
C          C       0.84639   0.60858   0.10809  -0.0470000000
C          C       0.60858   0.65361   0.10809   0.0840000000
C          C       0.89142   0.84639   0.39191  -0.1460000000
C          C       0.60858   0.65361   0.39191   0.0980000000
C          C       0.89142   0.84639   0.10809  -0.0550000000
C          C       0.60858   0.84639   0.39191   0.3340000000
C          C       0.89142   0.65361   0.10809  -0.1350000000
C          C       0.60858   0.84639   0.10809   0.0780000000
C          C       0.89142   0.65361   0.39191  -0.1420000000
C          C       0.65361   0.60858   0.39191   0.3410000000
C          C       0.84639   0.89142   0.10809  -0.1380000000
C          C       0.65361   0.60858   0.10809   0.3090000000
C          C       0.84639   0.89142   0.39191  -0.0560000000
N          N       0.92588   0.84624   0.34451  -0.3390000000
H          H       0.57412   0.65377   0.15549   0.0640000000
H          H       0.92588   0.84624   0.15549   0.0090000000
H          H       0.57412   0.65377   0.34451   0.0850000000
H          H       0.84624   0.57412   0.34451   0.0480000000
H          H       0.65376   0.92588   0.15549   0.0630000000
H          H       0.84624   0.57412   0.15549   0.0280000000
H          H       0.65376   0.92588   0.34451   0.0640000000
H          H       0.57412   0.84624   0.15549   0.0600000000
N          N       0.92588   0.65377   0.34451  -0.3390000000
H          H       0.57412   0.84624   0.34451   0.0990000000
N          N       0.92588   0.65377   0.15549  -0.3250000000
H          H       0.65377   0.57412   0.15549   0.0840000000
H          H       0.84623   0.92588   0.34451   0.0290000000
H          H       0.65377   0.57412   0.34451   0.1040000000
N          N       0.84623   0.92588   0.15549  -0.3250000000
H          H       0.90377   0.67588   0.09451   0.0650000000
N          N       0.59624   0.82412   0.40549  -0.3340000000
H          H       0.90377   0.67588   0.40549   0.1340000000
H          H       0.59624   0.82412   0.09451   0.0270000000
H          H       0.82412   0.90377   0.09451   0.0630000000
N          N       0.67588   0.59624   0.40549  -0.3350000000
H          H       0.82412   0.90377   0.40549   0.1140000000
N          N       0.67588   0.59624   0.09451  -0.3320000000
H          H       0.59624   0.67588   0.40549   0.0930000000
H          H       0.90377   0.82412   0.09451   0.0420000000
H          H       0.59624   0.67588   0.09451   0.0270000000
H          H       0.90377   0.82412   0.40549   0.1330000000
H          H       0.67588   0.90377   0.40549   0.0820000000
H          H       0.82412   0.59624   0.09451   0.0550000000
N          N       0.67588   0.90377   0.09451  -0.3270000000
H          H       0.82412   0.59624   0.40549   0.1250000000
H          H       0.71310   0.78690   0.00000   0.1540000000
H          H       0.78690   0.71310   0.00000   0.1540000000
H          H       0.71310   0.71310   0.00000   0.1540000000
H          H       0.78690   0.78690   0.00000   0.1540000000
H          H       0.96310   0.53690   0.25000   0.1980000000
H          H       0.53690   0.96310   0.25000   0.1990000000
H          H       0.96309   0.96310   0.25000   0.1550000000
H          H       0.53690   0.53690   0.25000   0.2410000000
H          H       0.69363   0.53286   0.00000  -0.0070000000
H          H       0.80636   0.96714   0.00000  -0.0020000000
H          H       0.53287   0.80636   0.00000  -0.0090000000
H          H       0.96714   0.69363   0.00000   0.0030000000
H          H       0.53287   0.69363   0.00000  -0.0270000000
N          N       0.69363   0.96714   0.00000  -0.2200000000
H          H       0.80636   0.53286   0.00000  -0.0330000000
N          N       0.55636   0.78286   0.25000  -0.3290000000
H          H       0.94363   0.71714   0.25000   0.0740000000
H          H       0.71714   0.55636   0.25000   0.0910000000
H          H       0.78286   0.94363   0.25000   0.0440000000
H          H       0.71713   0.94363   0.25000   0.0760000000
N          N       0.78286   0.55636   0.25000  -0.3290000000
H          H       0.55636   0.71714   0.25000   0.0920000000
H          H       0.94363   0.78286   0.25000   0.0430000000
O          O       0.65845   0.52956   0.25000  -0.7260000000
O          O       0.84155   0.97044   0.25000  -0.8300000000
O          O       0.52956   0.84155   0.25000  -0.7780000000
O          O       0.97044   0.65845   0.25000  -0.8190000000
O          O       0.52956   0.65845   0.25000  -0.7260000000
O          O       0.97044   0.84155   0.25000  -0.8340000000
O          O       0.65845   0.97044   0.25000  -0.8100000000
O          O       0.84155   0.52956   0.25000  -0.7750000000
O          O       0.59155   0.77956   0.00000  -0.8700000000
O          O       0.90845   0.72044   0.00000  -0.8670000000
O          O       0.72044   0.59155   0.00000  -0.8740000000
O          O       0.77955   0.90845   0.00000  -0.8680000000
O          O       0.72044   0.90845   0.00000  -0.8740000000
O          O       0.77956   0.59155   0.00000  -0.8660000000
O          O       0.59155   0.72044   0.00000  -0.8600000000
O          O       0.90845   0.77956   0.00000  -0.8790000000
O          O       0.84957   0.75000   0.46617  -0.9390000000
O          O       0.65043   0.75000   0.03383  -1.2840000000
O          O       0.84957   0.75000   0.03383  -1.2880000000
O          O       0.65043   0.75000   0.46617  -0.9400000000
O          O       0.75000   0.65043   0.46617  -0.9410000000
O          O       0.75000   0.84957   0.03383  -1.2900000000
O          O       0.75000   0.65043   0.03383  -1.2880000000
O          O       0.75000   0.84957   0.46617  -0.9370000000
O          O       0.50000   0.59957   0.21617  -1.1750000000
O          O       0.50000   0.90043   0.28383  -1.1640000000
O          O       0.50000   0.59957   0.28383  -1.1490000000
O          O       0.50000   0.90043   0.21617  -1.1870000000
O          O       0.90043   0.50000   0.21617  -1.1900000000
O          O       0.59957   0.50000   0.28383  -1.1470000000
O          O       0.90043   0.50000   0.28383  -1.1600000000
O          O       0.59957   0.50000   0.21617  -1.1740000000
O          O       0.61472   0.57301   0.20944  -0.7130000000
O          O       0.88528   0.92700   0.29056  -0.7490000000
O          O       0.61472   0.57301   0.29056  -0.7020000000
O          O       0.88528   0.92700   0.20944  -0.7830000000
O          O       0.57301   0.88527   0.20944  -0.7220000000
O          O       0.92700   0.61472   0.29056  -0.7740000000
O          O       0.57301   0.88527   0.29056  -0.7110000000
O          O       0.92700   0.61472   0.20944  -0.7800000000
O          O       0.57301   0.61472   0.29056  -0.7030000000
O          O       0.92700   0.88527   0.20944  -0.7590000000
O          O       0.57301   0.61472   0.20944  -0.7130000000
O          O       0.92700   0.88527   0.29056  -0.7780000000
O          O       0.61472   0.92700   0.29056  -0.7260000000
O          O       0.88527   0.57301   0.20944  -0.7400000000
O          O       0.61472   0.92700   0.20944  -0.7370000000
O          O       0.88527   0.57301   0.29056  -0.7300000000
O          O       0.63528   0.82301   0.04056  -0.8020000000
O          O       0.86473   0.67700   0.45944  -0.5080000000
O          O       0.63528   0.82301   0.45944  -0.5680000000
O          O       0.86473   0.67700   0.04056  -0.7880000000
O          O       0.67700   0.63528   0.04056  -0.8280000000
O          O       0.82301   0.86473   0.45944  -0.5100000000
O          O       0.67700   0.63528   0.45944  -0.5660000000
O          O       0.82301   0.86473   0.04056  -0.7910000000
O          O       0.67700   0.86473   0.45944  -0.5280000000
O          O       0.82301   0.63528   0.04056  -0.7850000000
O          O       0.67700   0.86473   0.04056  -0.8310000000
O          O       0.82301   0.63528   0.45944  -0.5050000000
O          O       0.63528   0.67700   0.45944  -0.5220000000
O          O       0.86473   0.82301   0.04056  -0.7920000000
O          O       0.63528   0.67700   0.04056  -0.7990000000
O          O       0.86473   0.82301   0.45944  -0.5100000000
O          O       0.55487   0.55487   0.25000  -1.1460000000
O          O       0.94512   0.94512   0.25000  -1.1860000000
O          O       0.55487   0.94512   0.25000  -1.1660000000
O          O       0.94512   0.55487   0.25000  -1.1660000000
O          O       0.69512   0.80487   0.00000  -1.3190000000
O          O       0.80487   0.69512   0.00000  -1.3200000000
O          O       0.69512   0.69512   0.00000  -1.3200000000
O          O       0.80487   0.80487   0.00000  -1.3200000000
Ti         Ti      0.89492   0.53593   0.25000   3.1050000000
Ti         Ti      0.60508   0.96407   0.25000   3.0960000000
Ti         Ti      0.96407   0.89492   0.25000   3.0960000000
Ti         Ti      0.53594   0.60508   0.25000   3.1040000000
Ti         Ti      0.96407   0.60508   0.25000   3.0960000000
Ti         Ti      0.53594   0.89492   0.25000   3.1040000000
Ti         Ti      0.89492   0.96407   0.25000   3.0960000000
Ti         Ti      0.60508   0.53593   0.25000   3.1040000000
Ti         Ti      0.64492   0.78594   0.00000   3.0730000000
Ti         Ti      0.85508   0.71406   0.00000   3.0720000000
Ti         Ti      0.71406   0.64492   0.00000   3.0720000000
Ti         Ti      0.78594   0.85508   0.00000   3.0720000000
Ti         Ti      0.71406   0.85508   0.00000   3.0730000000
Ti         Ti      0.78594   0.64492   0.00000   3.0720000000
Ti         Ti      0.64492   0.71406   0.00000   3.0730000000
Ti         Ti      0.85508   0.78594   0.00000   3.0720000000
H          H       0.68419   0.89483   0.07058   0.1640000000
H          H       0.68768   0.92385   0.10616   0.1040000000
H          H       0.82610   0.93764   0.14388   0.0970000000
H          H       0.85521   0.93424   0.17938   0.1570000000
H          H       0.93764   0.67390   0.14388   0.1000000000
H          H       0.93424   0.64479   0.17938   0.1580000000
H          H       0.68419   0.60517   0.07058   0.1720000000
H          H       0.68769   0.57615   0.10616   0.1270000000
H          H       0.68764   0.57610   0.39387   0.1940000000
H          H       0.68424   0.60521   0.42938   0.2420000000
H          H       0.57610   0.81236   0.39387   0.1900000000
H          H       0.60521   0.81576   0.42938   0.2400000000
H          H       0.93420   0.85517   0.32059   0.1720000000
H          H       0.93769   0.82615   0.35616   0.1400000000
H          H       0.93420   0.64484   0.32059   0.1740000000
H          H       0.93769   0.67386   0.35616   0.1430000000
H          H       0.66786   0.96905  -0.00191  -0.0050000000
H          H       0.69513   0.94036  -0.00664   0.0780000000
H          H       0.98196   0.82888  -0.00003  -0.0180000000
H          H       0.94052   0.80637   0.00346   0.0980000000
N          N       0.96714   0.80636   0.00000  -0.2340000000
H          H       0.55599   0.80866   0.25000   0.1890000000
H          H       0.57890   0.77029   0.25000   0.1300000000
H          H       0.80866   0.55599   0.25000   0.1900000000
H          H       0.77029   0.57890   0.25000   0.1300000000
C          C       0.17428   0.00000   0.75000   0.5530000000
C          C       0.32572   0.00000   0.75000   0.6300000000
C          C      -0.00000   0.32572   0.75000   0.6300000000
C          C       0.00000   0.17428   0.75000   0.5540000000
C          C       0.25000   0.42427   0.50000   0.4760000000
C          C       0.25000   0.07573   0.50000   0.5000000000
C          C       0.07573   0.25000   0.50000   0.5000000000
C          C       0.42427   0.25000   0.50000   0.4770000000
C          C       0.46336   0.25000   0.50000  -0.1720000000
C          C       0.03665   0.25000   0.50000  -0.2230000000
C          C       0.25000   0.03665   0.50000  -0.2250000000
C          C       0.25000   0.46336   0.50000  -0.1690000000
C          C       0.00000   0.21335   0.75000   0.0400000000
C          C       0.00000   0.28664   0.75000  -0.1690000000
C          C       0.28664   0.00000   0.75000  -0.1690000000
C          C       0.21335   0.00000   0.75000   0.0400000000
C          C       0.48177   0.28186   0.50000   0.0190000000
C          C       0.01823   0.21814   0.50000   0.1300000000
C          C       0.28186   0.01823   0.50000   0.1270000000
C          C       0.21814   0.48177   0.50000   0.0150000000
C          C       0.28186   0.48177   0.50000  -0.1650000000
C          C       0.21814   0.01823   0.50000   0.0650000000
C          C       0.48177   0.21814   0.50000  -0.1650000000
C          C       0.01823   0.28186   0.50000   0.0650000000
C          C       0.26822   0.03186   0.75000   0.3080000000
C          C       0.23177   0.46814   0.75000  -0.1320000000
C          C       0.46814   0.26822   0.75000  -0.0030000000
C          C       0.03186   0.23177   0.75000  -0.1400000000
C          C       0.46814   0.23177   0.75000  -0.1340000000
C          C       0.03186   0.26822   0.75000   0.3070000000
C          C       0.26822   0.46814   0.75000  -0.0000000000
C          C       0.23177   0.03186   0.75000  -0.1400000000
C          C       0.11274   0.11274   0.65901  -0.0660000000
C          C       0.38726   0.38726   0.84100  -0.2870000000
C          C       0.11274   0.11274   0.84100  -0.0520000000
C          C       0.38726   0.38726   0.65901  -0.2830000000
C          C       0.11274   0.38726   0.65901  -0.0780000000
C          C       0.38726   0.11274   0.84100  -0.2790000000
C          C       0.11274   0.38726   0.84100  -0.0640000000
C          C       0.38726   0.11274   0.65901  -0.2760000000
C          C       0.13726   0.36274   0.90900  -0.2210000000
C          C       0.36274   0.13726   0.59099  -0.0880000000
C          C       0.13726   0.36274   0.59099  -0.2840000000
C          C       0.36274   0.13726   0.90900   0.0050000000
C          C       0.13726   0.13726   0.90900  -0.2180000000
C          C       0.36274   0.36274   0.59099  -0.0920000000
C          C       0.13726   0.13726   0.59099  -0.2850000000
C          C       0.36274   0.36274   0.90900   0.0010000000
C          C       0.34930   0.34930   0.94503   0.4830000000
C          C       0.15071   0.15071   0.55496   0.5880000000
C          C       0.34930   0.34930   0.55496   0.5070000000
C          C       0.15071   0.15071   0.94503   0.5720000000
C          C       0.34930   0.15071   0.94503   0.4850000000
C          C       0.15071   0.34930   0.55496   0.5830000000
C          C       0.34930   0.15071   0.55496   0.5100000000
C          C       0.15071   0.34930   0.94503   0.5690000000
C          C       0.40070   0.09929   0.69503   0.5860000000
C          C       0.09929   0.40070   0.80496   0.5220000000
C          C       0.40070   0.09930   0.80496   0.6010000000
C          C       0.09929   0.40070   0.69503   0.5130000000
C          C       0.40070   0.40070   0.69503   0.5840000000
C          C       0.09930   0.09930   0.80496   0.5220000000
C          C       0.40070   0.40070   0.80496   0.5990000000
C          C       0.09930   0.09929   0.69503   0.5130000000
C          C       0.09639   0.14142   0.64190  -0.0470000000
C          C       0.40361   0.35858   0.85809   0.3410000000
C          C       0.09639   0.14142   0.85809  -0.0160000000
C          C       0.40361   0.35858   0.64190   0.0710000000
C          C       0.14142   0.40361   0.64190  -0.1340000000
C          C       0.35858   0.09639   0.85809   0.1200000000
C          C       0.14142   0.40361   0.85809  -0.0210000000
C          C       0.35858   0.09639   0.64190   0.0770000000
C          C       0.14142   0.09639   0.85809  -0.1160000000
C          C       0.35858   0.40361   0.64190   0.2890000000
C          C       0.14142   0.09639   0.64190  -0.1340000000
C          C       0.35858   0.40361   0.85809   0.1140000000
C          C       0.09639   0.35858   0.85809  -0.1170000000
C          C       0.40361   0.14142   0.64190   0.2920000000
C          C       0.09639   0.35858   0.64190  -0.0460000000
C          C       0.40361   0.14142   0.85809   0.3440000000
C          C       0.15361   0.39142   0.60810   0.2930000000
C          C       0.34639   0.10858   0.89191  -0.0470000000
C          C       0.15361   0.39142   0.89191   0.0880000000
C          C       0.34639   0.10858   0.60810  -0.0470000000
C          C       0.10858   0.15361   0.60810   0.0840000000
C          C       0.39142   0.34639   0.89191  -0.1460000000
C          C       0.10858   0.15361   0.89191   0.0980000000
C          C       0.39142   0.34639   0.60810  -0.0550000000
C          C       0.10858   0.34639   0.89191   0.3340000000
C          C       0.39142   0.15361   0.60810  -0.1350000000
C          C       0.10858   0.34639   0.60810   0.0780000000
C          C       0.39142   0.15361   0.89191  -0.1420000000
C          C       0.15361   0.10858   0.89191   0.3410000000
C          C       0.34639   0.39142   0.60810  -0.1380000000
C          C       0.15361   0.10858   0.60810   0.3090000000
C          C       0.34639   0.39142   0.89191  -0.0560000000
N          N       0.42588   0.34624   0.84451  -0.3390000000
H          H       0.07412   0.15377   0.65549   0.0640000000
H          H       0.42588   0.34624   0.65549   0.0090000000
H          H       0.07412   0.15377   0.84451   0.0850000000
H          H       0.34624   0.07412   0.84451   0.0480000000
H          H       0.15377   0.42588   0.65549   0.0630000000
H          H       0.34624   0.07412   0.65549   0.0280000000
H          H       0.15377   0.42588   0.84451   0.0640000000
H          H       0.07412   0.34624   0.65549   0.0600000000
N          N       0.42588   0.15377   0.84451  -0.3390000000
H          H       0.07412   0.34624   0.84451   0.0990000000
N          N       0.42588   0.15377   0.65549  -0.3250000000
H          H       0.15377   0.07412   0.65549   0.0840000000
H          H       0.34624   0.42588   0.84451   0.0290000000
H          H       0.15377   0.07412   0.84451   0.1040000000
N          N       0.34624   0.42588   0.65549  -0.3250000000
H          H       0.40376   0.17588   0.59451   0.0650000000
N          N       0.09624   0.32412   0.90549  -0.3340000000
H          H       0.40377   0.17588   0.90549   0.1340000000
H          H       0.09624   0.32412   0.59451   0.0270000000
H          H       0.32412   0.40376   0.59451   0.0630000000
N          N       0.17588   0.09623   0.90549  -0.3350000000
H          H       0.32412   0.40377   0.90549   0.1140000000
N          N       0.17588   0.09624   0.59451  -0.3320000000
H          H       0.09623   0.17588   0.90549   0.0930000000
H          H       0.40376   0.32412   0.59451   0.0420000000
H          H       0.09624   0.17588   0.59451   0.0270000000
H          H       0.40377   0.32412   0.90549   0.1330000000
H          H       0.17588   0.40377   0.90549   0.0820000000
H          H       0.32412   0.09624   0.59451   0.0550000000
N          N       0.17588   0.40376   0.59451  -0.3270000000
H          H       0.32412   0.09623   0.90549   0.1250000000
H          H       0.21310   0.28690   0.50000   0.1540000000
H          H       0.28690   0.21310   0.50000   0.1540000000
H          H       0.21310   0.21310   0.50000   0.1540000000
H          H       0.28690   0.28690   0.50000   0.1540000000
H          H       0.46309   0.03690   0.75000   0.1980000000
H          H       0.03690   0.46309   0.75000   0.1990000000
H          H       0.46309   0.46309   0.75000   0.1550000000
H          H       0.03690   0.03690   0.75000   0.2410000000
H          H       0.19363   0.03287   0.50000  -0.0070000000
H          H       0.30636   0.46714   0.50000  -0.0020000000
H          H       0.03286   0.30636   0.50000  -0.0090000000
H          H       0.46714   0.19363   0.50000   0.0030000000
H          H       0.03286   0.19363   0.50000  -0.0270000000
N          N       0.19363   0.46714   0.50000  -0.2200000000
H          H       0.30636   0.03287   0.50000  -0.0330000000
N          N       0.05636   0.28286   0.75000  -0.3290000000
H          H       0.44363   0.21713   0.75000   0.0740000000
H          H       0.21713   0.05636   0.75000   0.0910000000
H          H       0.28286   0.44363   0.75000   0.0440000000
H          H       0.21714   0.44363   0.75000   0.0760000000
N          N       0.28286   0.05636   0.75000  -0.3290000000
H          H       0.05636   0.21713   0.75000   0.0920000000
H          H       0.44363   0.28286   0.75000   0.0430000000
O          O       0.15845   0.02956   0.75000  -0.7260000000
O          O       0.34155   0.47044   0.75000  -0.8300000000
O          O       0.02956   0.34155   0.75000  -0.7780000000
O          O       0.47044   0.15845   0.75000  -0.8190000000
O          O       0.02956   0.15845   0.75000  -0.7260000000
O          O       0.47044   0.34155   0.75000  -0.8340000000
O          O       0.15845   0.47044   0.75000  -0.8100000000
O          O       0.34155   0.02956   0.75000  -0.7750000000
O          O       0.09155   0.27955   0.50000  -0.8700000000
O          O       0.40845   0.22044   0.50000  -0.8670000000
O          O       0.22044   0.09155   0.50000  -0.8740000000
O          O       0.27956   0.40845   0.50000  -0.8680000000
O          O       0.22044   0.40845   0.50000  -0.8740000000
O          O       0.27955   0.09155   0.50000  -0.8660000000
O          O       0.09155   0.22044   0.50000  -0.8600000000
O          O       0.40845   0.27955   0.50000  -0.8790000000
O          O       0.34958   0.25000   0.96617  -0.9390000000
O          O       0.15043   0.25000   0.53383  -1.2840000000
O          O       0.34958   0.25000   0.53383  -1.2880000000
O          O       0.15043   0.25000   0.96617  -0.9400000000
O          O       0.25000   0.15043   0.96617  -0.9410000000
O          O       0.25000   0.34958   0.53383  -1.2900000000
O          O       0.25000   0.15043   0.53383  -1.2880000000
O          O       0.25000   0.34958   0.96617  -0.9370000000
O          O       0.00000   0.09957   0.71617  -1.1750000000
O          O      -0.00000   0.40042   0.78383  -1.1640000000
O          O       0.00000   0.09957   0.78383  -1.1490000000
O          O       0.00000   0.40042   0.71617  -1.1870000000
O          O       0.40042  -0.00000   0.71617  -1.1900000000
O          O       0.09957   0.00000   0.78383  -1.1470000000
O          O       0.40042   0.00000   0.78383  -1.1600000000
O          O       0.09957  -0.00000   0.71617  -1.1740000000
O          O       0.11473   0.07301   0.70944  -0.7130000000
O          O       0.38528   0.42700   0.79056  -0.7490000000
O          O       0.11473   0.07301   0.79056  -0.7020000000
O          O       0.38528   0.42700   0.70944  -0.7830000000
O          O       0.07301   0.38527   0.70944  -0.7220000000
O          O       0.42700   0.11473   0.79056  -0.7740000000
O          O       0.07301   0.38527   0.79056  -0.7110000000
O          O       0.42700   0.11473   0.70944  -0.7800000000
O          O       0.07301   0.11473   0.79056  -0.7030000000
O          O       0.42700   0.38527   0.70944  -0.7590000000
O          O       0.07301   0.11473   0.70944  -0.7130000000
O          O       0.42700   0.38527   0.79056  -0.7780000000
O          O       0.11473   0.42700   0.79056  -0.7260000000
O          O       0.38527   0.07301   0.70944  -0.7400000000
O          O       0.11473   0.42700   0.70944  -0.7370000000
O          O       0.38527   0.07301   0.79056  -0.7300000000
O          O       0.13527   0.32300   0.54056  -0.8020000000
O          O       0.36473   0.17700   0.95945  -0.5080000000
O          O       0.13527   0.32301   0.95945  -0.5680000000
O          O       0.36473   0.17700   0.54056  -0.7880000000
O          O       0.17700   0.13528   0.54056  -0.8280000000
O          O       0.32301   0.36473   0.95945  -0.5100000000
O          O       0.17700   0.13527   0.95945  -0.5660000000
O          O       0.32300   0.36473   0.54056  -0.7910000000
O          O       0.17699   0.36473   0.95945  -0.5280000000
O          O       0.32300   0.13528   0.54056  -0.7850000000
O          O       0.17700   0.36473   0.54056  -0.8310000000
O          O       0.32301   0.13527   0.95945  -0.5050000000
O          O       0.13527   0.17700   0.95945  -0.5220000000
O          O       0.36473   0.32300   0.54056  -0.7920000000
O          O       0.13528   0.17700   0.54056  -0.7990000000
O          O       0.36473   0.32301   0.95945  -0.5100000000
O          O       0.05487   0.05487   0.75000  -1.1460000000
O          O       0.44512   0.44512   0.75000  -1.1860000000
O          O       0.05487   0.44512   0.75000  -1.1660000000
O          O       0.44512   0.05487   0.75000  -1.1660000000
O          O       0.19512   0.30487   0.50000  -1.3190000000
O          O       0.30487   0.19512   0.50000  -1.3200000000
O          O       0.19513   0.19512   0.50000  -1.3200000000
O          O       0.30487   0.30487   0.50000  -1.3200000000
Ti         Ti      0.39492   0.03594   0.75000   3.1050000000
Ti         Ti      0.10508   0.46407   0.75000   3.0960000000
Ti         Ti      0.46407   0.39492   0.75000   3.0960000000
Ti         Ti      0.03594   0.10508   0.75000   3.1040000000
Ti         Ti      0.46407   0.10508   0.75000   3.0960000000
Ti         Ti      0.03594   0.39492   0.75000   3.1040000000
Ti         Ti      0.39492   0.46407   0.75000   3.0960000000
Ti         Ti      0.10508   0.03594   0.75000   3.1040000000
Ti         Ti      0.14492   0.28593   0.50000   3.0730000000
Ti         Ti      0.35508   0.21407   0.50000   3.0720000000
Ti         Ti      0.21407   0.14492   0.50000   3.0720000000
Ti         Ti      0.28593   0.35508   0.50000   3.0720000000
Ti         Ti      0.21406   0.35508   0.50000   3.0730000000
Ti         Ti      0.28593   0.14492   0.50000   3.0720000000
Ti         Ti      0.14492   0.21407   0.50000   3.0730000000
Ti         Ti      0.35508   0.28593   0.50000   3.0720000000
H          H       0.18419   0.39483   0.57059   0.1640000000
H          H       0.18768   0.42385   0.60616   0.1040000000
H          H       0.32610   0.43764   0.64387   0.0970000000
H          H       0.35521   0.43424   0.67938   0.1570000000
H          H       0.43764   0.17390   0.64387   0.1000000000
H          H       0.43424   0.14479   0.67938   0.1580000000
H          H       0.18419   0.10516   0.57059   0.1720000000
H          H       0.18768   0.07615   0.60616   0.1270000000
H          H       0.18764   0.07610   0.89388   0.1940000000
H          H       0.18424   0.10521   0.92938   0.2420000000
H          H       0.07610   0.31235   0.89388   0.1900000000
H          H       0.10521   0.31576   0.92938   0.2400000000
H          H       0.43419   0.35517   0.82059   0.1720000000
H          H       0.43768   0.32615   0.85616   0.1400000000
H          H       0.43419   0.14483   0.82059   0.1740000000
H          H       0.43768   0.17386   0.85616   0.1430000000
H          H       0.16786   0.46905   0.49810  -0.0050000000
H          H       0.19514   0.44035   0.49336   0.0780000000
H          H       0.48195   0.32887   0.49998  -0.0180000000
H          H       0.44052   0.30637   0.50345   0.0980000000
N          N       0.46714   0.30636   0.50000  -0.2340000000
H          H       0.05599   0.30866   0.75000   0.1890000000
H          H       0.07890   0.27030   0.75000   0.1300000000
H          H       0.30866   0.05599   0.75000   0.1900000000
H          H       0.27030   0.07890   0.75000   0.1300000000
C          C       0.67428   0.00000   0.75000   0.5530000000
C          C       0.82572   0.00000   0.75000   0.6300000000
C          C       0.50000   0.32572   0.75000   0.6300000000
C          C       0.50000   0.17428   0.75000   0.5540000000
C          C       0.75000   0.42427   0.50000   0.4760000000
C          C       0.75000   0.07573   0.50000   0.5000000000
C          C       0.57573   0.25000   0.50000   0.5000000000
C          C       0.92428   0.25000   0.50000   0.4770000000
C          C       0.96336   0.25000   0.50000  -0.1720000000
C          C       0.53665   0.25000   0.50000  -0.2230000000
C          C       0.75000   0.03665   0.50000  -0.2250000000
C          C       0.75000   0.46336   0.50000  -0.1690000000
C          C       0.50000   0.21335   0.75000   0.0400000000
C          C       0.50000   0.28664   0.75000  -0.1690000000
C          C       0.78664   0.00000   0.75000  -0.1690000000
C          C       0.71336   0.00000   0.75000   0.0400000000
C          C       0.98177   0.28186   0.50000   0.0190000000
C          C       0.51823   0.21814   0.50000   0.1300000000
C          C       0.78186   0.01823   0.50000   0.1270000000
C          C       0.71814   0.48177   0.50000   0.0150000000
C          C       0.78186   0.48177   0.50000  -0.1650000000
C          C       0.71814   0.01823   0.50000   0.0650000000
C          C       0.98177   0.21814   0.50000  -0.1650000000
C          C       0.51823   0.28186   0.50000   0.0650000000
C          C       0.76823   0.03186   0.75000   0.3080000000
C          C       0.73177   0.46814   0.75000  -0.1320000000
C          C       0.96814   0.26822   0.75000  -0.0030000000
C          C       0.53186   0.23177   0.75000  -0.1400000000
C          C       0.96814   0.23177   0.75000  -0.1340000000
C          C       0.53186   0.26822   0.75000   0.3070000000
C          C       0.76823   0.46814   0.75000  -0.0000000000
C          C       0.73177   0.03186   0.75000  -0.1400000000
C          C       0.61274   0.11274   0.65901  -0.0660000000
C          C       0.88726   0.38726   0.84100  -0.2870000000
C          C       0.61274   0.11274   0.84100  -0.0520000000
C          C       0.88726   0.38726   0.65901  -0.2830000000
C          C       0.61274   0.38726   0.65901  -0.0780000000
C          C       0.88726   0.11274   0.84100  -0.2790000000
C          C       0.61274   0.38726   0.84100  -0.0640000000
C          C       0.88726   0.11274   0.65901  -0.2760000000
C          C       0.63726   0.36274   0.90900  -0.2210000000
C          C       0.86274   0.13726   0.59099  -0.0880000000
C          C       0.63726   0.36274   0.59099  -0.2840000000
C          C       0.86274   0.13726   0.90900   0.0050000000
C          C       0.63726   0.13726   0.90900  -0.2180000000
C          C       0.86274   0.36274   0.59099  -0.0920000000
C          C       0.63726   0.13726   0.59099  -0.2850000000
C          C       0.86274   0.36274   0.90900   0.0010000000
C          C       0.84930   0.34930   0.94503   0.4830000000
C          C       0.65070   0.15071   0.55496   0.5880000000
C          C       0.84930   0.34930   0.55496   0.5070000000
C          C       0.65071   0.15071   0.94503   0.5720000000
C          C       0.84930   0.15071   0.94503   0.4850000000
C          C       0.65071   0.34930   0.55496   0.5830000000
C          C       0.84930   0.15071   0.55496   0.5100000000
C          C       0.65071   0.34930   0.94503   0.5690000000
C          C       0.90070   0.09929   0.69503   0.5860000000
C          C       0.59930   0.40070   0.80496   0.5220000000
C          C       0.90070   0.09930   0.80496   0.6010000000
C          C       0.59930   0.40070   0.69503   0.5130000000
C          C       0.90070   0.40070   0.69503   0.5840000000
C          C       0.59930   0.09930   0.80496   0.5220000000
C          C       0.90070   0.40070   0.80496   0.5990000000
C          C       0.59930   0.09929   0.69503   0.5130000000
C          C       0.59639   0.14142   0.64190  -0.0470000000
C          C       0.90361   0.35858   0.85809   0.3410000000
C          C       0.59639   0.14142   0.85809  -0.0160000000
C          C       0.90361   0.35858   0.64190   0.0710000000
C          C       0.64142   0.40361   0.64190  -0.1340000000
C          C       0.85858   0.09639   0.85809   0.1200000000
C          C       0.64142   0.40361   0.85809  -0.0210000000
C          C       0.85858   0.09639   0.64190   0.0770000000
C          C       0.64142   0.09639   0.85809  -0.1160000000
C          C       0.85858   0.40361   0.64190   0.2890000000
C          C       0.64142   0.09639   0.64190  -0.1340000000
C          C       0.85858   0.40361   0.85809   0.1140000000
C          C       0.59639   0.35858   0.85809  -0.1170000000
C          C       0.90361   0.14142   0.64190   0.2920000000
C          C       0.59639   0.35858   0.64190  -0.0460000000
C          C       0.90361   0.14142   0.85809   0.3440000000
C          C       0.65361   0.39142   0.60810   0.2930000000
C          C       0.84639   0.10858   0.89191  -0.0470000000
C          C       0.65361   0.39142   0.89191   0.0880000000
C          C       0.84639   0.10858   0.60810  -0.0470000000
C          C       0.60858   0.15361   0.60810   0.0840000000
C          C       0.89142   0.34639   0.89191  -0.1460000000
C          C       0.60858   0.15361   0.89191   0.0980000000
C          C       0.89142   0.34639   0.60810  -0.0550000000
C          C       0.60858   0.34639   0.89191   0.3340000000
C          C       0.89142   0.15361   0.60810  -0.1350000000
C          C       0.60858   0.34639   0.60810   0.0780000000
C          C       0.89142   0.15361   0.89191  -0.1420000000
C          C       0.65361   0.10858   0.89191   0.3410000000
C          C       0.84639   0.39142   0.60810  -0.1380000000
C          C       0.65361   0.10858   0.60810   0.3090000000
C          C       0.84639   0.39142   0.89191  -0.0560000000
N          N       0.92588   0.34624   0.84451  -0.3390000000
H          H       0.57412   0.15377   0.65549   0.0640000000
H          H       0.92588   0.34624   0.65549   0.0090000000
H          H       0.57412   0.15377   0.84451   0.0850000000
H          H       0.84624   0.07412   0.84451   0.0480000000
H          H       0.65377   0.42588   0.65549   0.0630000000
H          H       0.84624   0.07412   0.65549   0.0280000000
H          H       0.65377   0.42588   0.84451   0.0640000000
H          H       0.57412   0.34624   0.65549   0.0600000000
N          N       0.92588   0.15377   0.84451  -0.3390000000
H          H       0.57412   0.34624   0.84451   0.0990000000
N          N       0.92588   0.15377   0.65549  -0.3250000000
H          H       0.65377   0.07412   0.65549   0.0840000000
H          H       0.84624   0.42588   0.84451   0.0290000000
H          H       0.65377   0.07412   0.84451   0.1040000000
N          N       0.84624   0.42588   0.65549  -0.3250000000
H          H       0.90377   0.17588   0.59451   0.0650000000
N          N       0.59624   0.32412   0.90549  -0.3340000000
H          H       0.90377   0.17588   0.90549   0.1340000000
H          H       0.59624   0.32412   0.59451   0.0270000000
H          H       0.82412   0.40376   0.59451   0.0630000000
N          N       0.67588   0.09623   0.90549  -0.3350000000
H          H       0.82412   0.40377   0.90549   0.1140000000
N          N       0.67588   0.09624   0.59451  -0.3320000000
H          H       0.59624   0.17588   0.90549   0.0930000000
H          H       0.90377   0.32412   0.59451   0.0420000000
H          H       0.59624   0.17588   0.59451   0.0270000000
H          H       0.90377   0.32412   0.90549   0.1330000000
H          H       0.67588   0.40377   0.90549   0.0820000000
H          H       0.82412   0.09624   0.59451   0.0550000000
N          N       0.67588   0.40376   0.59451  -0.3270000000
H          H       0.82412   0.09623   0.90549   0.1250000000
H          H       0.71310   0.28690   0.50000   0.1540000000
H          H       0.78690   0.21310   0.50000   0.1540000000
H          H       0.71310   0.21310   0.50000   0.1540000000
H          H       0.78690   0.28690   0.50000   0.1540000000
H          H       0.96310   0.03690   0.75000   0.1980000000
H          H       0.53690   0.46309   0.75000   0.1990000000
H          H       0.96310   0.46309   0.75000   0.1550000000
H          H       0.53690   0.03690   0.75000   0.2410000000
H          H       0.69363   0.03287   0.50000  -0.0070000000
H          H       0.80636   0.46714   0.50000  -0.0020000000
H          H       0.53287   0.30636   0.50000  -0.0090000000
H          H       0.96714   0.19363   0.50000   0.0030000000
H          H       0.53287   0.19363   0.50000  -0.0270000000
N          N       0.69363   0.46714   0.50000  -0.2200000000
H          H       0.80636   0.03287   0.50000  -0.0330000000
N          N       0.55636   0.28286   0.75000  -0.3290000000
H          H       0.94363   0.21713   0.75000   0.0740000000
H          H       0.71714   0.05636   0.75000   0.0910000000
H          H       0.78286   0.44363   0.75000   0.0440000000
H          H       0.71714   0.44363   0.75000   0.0760000000
N          N       0.78286   0.05636   0.75000  -0.3290000000
H          H       0.55636   0.21713   0.75000   0.0920000000
H          H       0.94363   0.28286   0.75000   0.0430000000
O          O       0.65845   0.02956   0.75000  -0.7260000000
O          O       0.84155   0.47044   0.75000  -0.8300000000
O          O       0.52956   0.34155   0.75000  -0.7780000000
O          O       0.97044   0.15845   0.75000  -0.8190000000
O          O       0.52956   0.15845   0.75000  -0.7260000000
O          O       0.97044   0.34155   0.75000  -0.8340000000
O          O       0.65845   0.47044   0.75000  -0.8100000000
O          O       0.84155   0.02956   0.75000  -0.7750000000
O          O       0.59155   0.27955   0.50000  -0.8700000000
O          O       0.90845   0.22044   0.50000  -0.8670000000
O          O       0.72044   0.09155   0.50000  -0.8740000000
O          O       0.77956   0.40845   0.50000  -0.8680000000
O          O       0.72044   0.40845   0.50000  -0.8740000000
O          O       0.77956   0.09155   0.50000  -0.8660000000
O          O       0.59155   0.22044   0.50000  -0.8600000000
O          O       0.90845   0.27955   0.50000  -0.8790000000
O          O       0.84957   0.25000   0.96617  -0.9390000000
O          O       0.65043   0.25000   0.53383  -1.2840000000
O          O       0.84957   0.25000   0.53383  -1.2880000000
O          O       0.65042   0.25000   0.96617  -0.9400000000
O          O       0.75000   0.15043   0.96617  -0.9410000000
O          O       0.75000   0.34958   0.53383  -1.2900000000
O          O       0.75000   0.15043   0.53383  -1.2880000000
O          O       0.75000   0.34958   0.96617  -0.9370000000
O          O       0.50000   0.09957   0.71617  -1.1750000000
O          O       0.50000   0.40042   0.78383  -1.1640000000
O          O       0.50000   0.09957   0.78383  -1.1490000000
O          O       0.50000   0.40042   0.71617  -1.1870000000
O          O       0.90043  -0.00000   0.71617  -1.1900000000
O          O       0.59957   0.00000   0.78383  -1.1470000000
O          O       0.90043   0.00000   0.78383  -1.1600000000
O          O       0.59957  -0.00000   0.71617  -1.1740000000
O          O       0.61472   0.07301   0.70944  -0.7130000000
O          O       0.88528   0.42700   0.79056  -0.7490000000
O          O       0.61472   0.07301   0.79056  -0.7020000000
O          O       0.88528   0.42700   0.70944  -0.7830000000
O          O       0.57301   0.38527   0.70944  -0.7220000000
O          O       0.92700   0.11473   0.79056  -0.7740000000
O          O       0.57301   0.38527   0.79056  -0.7110000000
O          O       0.92700   0.11473   0.70944  -0.7800000000
O          O       0.57301   0.11473   0.79056  -0.7030000000
O          O       0.92700   0.38527   0.70944  -0.7590000000
O          O       0.57301   0.11473   0.70944  -0.7130000000
O          O       0.92700   0.38527   0.79056  -0.7780000000
O          O       0.61473   0.42700   0.79056  -0.7260000000
O          O       0.88527   0.07301   0.70944  -0.7400000000
O          O       0.61473   0.42700   0.70944  -0.7370000000
O          O       0.88527   0.07301   0.79056  -0.7300000000
O          O       0.63528   0.32300   0.54056  -0.8020000000
O          O       0.86472   0.17700   0.95945  -0.5080000000
O          O       0.63528   0.32301   0.95945  -0.5680000000
O          O       0.86473   0.17700   0.54056  -0.7880000000
O          O       0.67700   0.13528   0.54056  -0.8280000000
O          O       0.82300   0.36473   0.95945  -0.5100000000
O          O       0.67699   0.13527   0.95945  -0.5660000000
O          O       0.82301   0.36473   0.54056  -0.7910000000
O          O       0.67699   0.36473   0.95945  -0.5280000000
O          O       0.82301   0.13528   0.54056  -0.7850000000
O          O       0.67700   0.36473   0.54056  -0.8310000000
O          O       0.82300   0.13527   0.95945  -0.5050000000
O          O       0.63527   0.17700   0.95945  -0.5220000000
O          O       0.86473   0.32300   0.54056  -0.7920000000
O          O       0.63528   0.17700   0.54056  -0.7990000000
O          O       0.86472   0.32301   0.95945  -0.5100000000
O          O       0.55487   0.05487   0.75000  -1.1460000000
O          O       0.94512   0.44512   0.75000  -1.1860000000
O          O       0.55487   0.44512   0.75000  -1.1660000000
O          O       0.94512   0.05487   0.75000  -1.1660000000
O          O       0.69512   0.30487   0.50000  -1.3190000000
O          O       0.80487   0.19512   0.50000  -1.3200000000
O          O       0.69512   0.19512   0.50000  -1.3200000000
O          O       0.80487   0.30487   0.50000  -1.3200000000
Ti         Ti      0.89492   0.03594   0.75000   3.1050000000
Ti         Ti      0.60508   0.46407   0.75000   3.0960000000
Ti         Ti      0.96407   0.39492   0.75000   3.0960000000
Ti         Ti      0.53594   0.10508   0.75000   3.1040000000
Ti         Ti      0.96407   0.10508   0.75000   3.0960000000
Ti         Ti      0.53594   0.39492   0.75000   3.1040000000
Ti         Ti      0.89492   0.46407   0.75000   3.0960000000
Ti         Ti      0.60508   0.03594   0.75000   3.1040000000
Ti         Ti      0.64492   0.28593   0.50000   3.0730000000
Ti         Ti      0.85508   0.21407   0.50000   3.0720000000
Ti         Ti      0.71406   0.14492   0.50000   3.0720000000
Ti         Ti      0.78594   0.35508   0.50000   3.0720000000
Ti         Ti      0.71406   0.35508   0.50000   3.0730000000
Ti         Ti      0.78594   0.14492   0.50000   3.0720000000
Ti         Ti      0.64492   0.21407   0.50000   3.0730000000
Ti         Ti      0.85508   0.28593   0.50000   3.0720000000
H          H       0.68419   0.39483   0.57059   0.1640000000
H          H       0.68769   0.42385   0.60616   0.1040000000
H          H       0.82610   0.43764   0.64387   0.0970000000
H          H       0.85521   0.43424   0.67938   0.1570000000
H          H       0.93764   0.17390   0.64387   0.1000000000
H          H       0.93424   0.14479   0.67938   0.1580000000
H          H       0.68419   0.10516   0.57059   0.1720000000
H          H       0.68769   0.07615   0.60616   0.1270000000
H          H       0.68764   0.07610   0.89388   0.1940000000
H          H       0.68424   0.10521   0.92938   0.2420000000
H          H       0.57610   0.31235   0.89388   0.1900000000
H          H       0.60521   0.31576   0.92938   0.2400000000
H          H       0.93420   0.35517   0.82059   0.1720000000
H          H       0.93769   0.32615   0.85616   0.1400000000
H          H       0.93420   0.14483   0.82059   0.1740000000
H          H       0.93769   0.17386   0.85616   0.1430000000
H          H       0.66786   0.46905   0.49810  -0.0050000000
H          H       0.69514   0.44035   0.49336   0.0780000000
H          H       0.98196   0.32887   0.49998  -0.0180000000
H          H       0.94052   0.30637   0.50345   0.0980000000
N          N       0.96714   0.30636   0.50000  -0.2340000000
H          H       0.55599   0.30866   0.75000   0.1890000000
H          H       0.57890   0.27030   0.75000   0.1300000000
H          H       0.80866   0.05599   0.75000   0.1900000000
H          H       0.77029   0.07890   0.75000   0.1300000000
C          C       0.17428   0.50000   0.75000   0.5530000000
C          C       0.32572   0.50000   0.75000   0.6300000000
C          C       0.00000   0.82572   0.75000   0.6300000000
C          C       0.00000   0.67428   0.75000   0.5540000000
C          C       0.25000   0.92428   0.50000   0.4760000000
C          C       0.25000   0.57573   0.50000   0.5000000000
C          C       0.07573   0.75000   0.50000   0.5000000000
C          C       0.42427   0.75000   0.50000   0.4770000000
C          C       0.46335   0.75000   0.50000  -0.1720000000
C          C       0.03664   0.75000   0.50000  -0.2230000000
C          C       0.25000   0.53664   0.50000  -0.2250000000
C          C       0.25000   0.96336   0.50000  -0.1690000000
C          C       0.00000   0.71336   0.75000   0.0400000000
C          C       0.00000   0.78664   0.75000  -0.1690000000
C          C       0.28664   0.50000   0.75000  -0.1690000000
C          C       0.21336   0.50000   0.75000   0.0400000000
C          C       0.48177   0.78186   0.50000   0.0190000000
C          C       0.01823   0.71814   0.50000   0.1300000000
C          C       0.28186   0.51823   0.50000   0.1270000000
C          C       0.21814   0.98177   0.50000   0.0150000000
C          C       0.28186   0.98177   0.50000  -0.1650000000
C          C       0.21814   0.51823   0.50000   0.0650000000
C          C       0.48177   0.71814   0.50000  -0.1650000000
C          C       0.01823   0.78186   0.50000   0.0650000000
C          C       0.26822   0.53186   0.75000   0.3080000000
C          C       0.23177   0.96814   0.75000  -0.1320000000
C          C       0.46814   0.76823   0.75000  -0.0030000000
C          C       0.03186   0.73177   0.75000  -0.1400000000
C          C       0.46814   0.73177   0.75000  -0.1340000000
C          C       0.03186   0.76823   0.75000   0.3070000000
C          C       0.26823   0.96814   0.75000  -0.0000000000
C          C       0.23177   0.53186   0.75000  -0.1400000000
C          C       0.11274   0.61274   0.65901  -0.0660000000
C          C       0.38726   0.88726   0.84100  -0.2870000000
C          C       0.11274   0.61274   0.84100  -0.0520000000
C          C       0.38726   0.88726   0.65901  -0.2830000000
C          C       0.11274   0.88726   0.65901  -0.0780000000
C          C       0.38726   0.61274   0.84100  -0.2790000000
C          C       0.11274   0.88726   0.84100  -0.0640000000
C          C       0.38726   0.61274   0.65901  -0.2760000000
C          C       0.13726   0.86274   0.90900  -0.2210000000
C          C       0.36274   0.63726   0.59099  -0.0880000000
C          C       0.13726   0.86274   0.59099  -0.2840000000
C          C       0.36274   0.63726   0.90900   0.0050000000
C          C       0.13726   0.63726   0.90900  -0.2180000000
C          C       0.36274   0.86274   0.59099  -0.0920000000
C          C       0.13726   0.63726   0.59099  -0.2850000000
C          C       0.36274   0.86274   0.90900   0.0010000000
C          C       0.34930   0.84930   0.94503   0.4830000000
C          C       0.15071   0.65070   0.55496   0.5880000000
C          C       0.34930   0.84930   0.55496   0.5070000000
C          C       0.15071   0.65071   0.94503   0.5720000000
C          C       0.34930   0.65071   0.94503   0.4850000000
C          C       0.15071   0.84930   0.55496   0.5830000000
C          C       0.34930   0.65070   0.55496   0.5100000000
C          C       0.15070   0.84930   0.94503   0.5690000000
C          C       0.40070   0.59930   0.69503   0.5860000000
C          C       0.09930   0.90070   0.80496   0.5220000000
C          C       0.40070   0.59930   0.80496   0.6010000000
C          C       0.09929   0.90070   0.69503   0.5130000000
C          C       0.40070   0.90070   0.69503   0.5840000000
C          C       0.09930   0.59930   0.80496   0.5220000000
C          C       0.40070   0.90070   0.80496   0.5990000000
C          C       0.09929   0.59930   0.69503   0.5130000000
C          C       0.09639   0.64142   0.64190  -0.0470000000
C          C       0.40361   0.85858   0.85809   0.3410000000
C          C       0.09639   0.64142   0.85809  -0.0160000000
C          C       0.40361   0.85858   0.64190   0.0710000000
C          C       0.14142   0.90361   0.64190  -0.1340000000
C          C       0.35858   0.59639   0.85809   0.1200000000
C          C       0.14142   0.90361   0.85809  -0.0210000000
C          C       0.35858   0.59639   0.64190   0.0770000000
C          C       0.14142   0.59639   0.85809  -0.1160000000
C          C       0.35858   0.90361   0.64190   0.2890000000
C          C       0.14142   0.59639   0.64190  -0.1340000000
C          C       0.35858   0.90361   0.85809   0.1140000000
C          C       0.09639   0.85858   0.85809  -0.1170000000
C          C       0.40361   0.64142   0.64190   0.2920000000
C          C       0.09639   0.85858   0.64190  -0.0460000000
C          C       0.40361   0.64142   0.85809   0.3440000000
C          C       0.15361   0.89142   0.60810   0.2930000000
C          C       0.34639   0.60858   0.89191  -0.0470000000
C          C       0.15361   0.89142   0.89191   0.0880000000
C          C       0.34639   0.60858   0.60810  -0.0470000000
C          C       0.10858   0.65361   0.60810   0.0840000000
C          C       0.39142   0.84639   0.89191  -0.1460000000
C          C       0.10858   0.65361   0.89191   0.0980000000
C          C       0.39142   0.84639   0.60810  -0.0550000000
C          C       0.10858   0.84639   0.89191   0.3340000000
C          C       0.39142   0.65361   0.60810  -0.1350000000
C          C       0.10858   0.84639   0.60810   0.0780000000
C          C       0.39142   0.65361   0.89191  -0.1420000000
C          C       0.15361   0.60858   0.89191   0.3410000000
C          C       0.34639   0.89142   0.60810  -0.1380000000
C          C       0.15361   0.60858   0.60810   0.3090000000
C          C       0.34639   0.89142   0.89191  -0.0560000000
N          N       0.42588   0.84624   0.84451  -0.3390000000
H          H       0.07412   0.65377   0.65549   0.0640000000
H          H       0.42588   0.84624   0.65549   0.0090000000
H          H       0.07412   0.65377   0.84451   0.0850000000
H          H       0.34624   0.57412   0.84451   0.0480000000
H          H       0.15377   0.92588   0.65549   0.0630000000
H          H       0.34624   0.57412   0.65549   0.0280000000
H          H       0.15377   0.92588   0.84451   0.0640000000
H          H       0.07412   0.84624   0.65549   0.0600000000
N          N       0.42588   0.65377   0.84451  -0.3390000000
H          H       0.07412   0.84624   0.84451   0.0990000000
N          N       0.42588   0.65377   0.65549  -0.3250000000
H          H       0.15377   0.57412   0.65549   0.0840000000
H          H       0.34624   0.92588   0.84451   0.0290000000
H          H       0.15377   0.57412   0.84451   0.1040000000
N          N       0.34624   0.92588   0.65549  -0.3250000000
H          H       0.40376   0.67588   0.59451   0.0650000000
N          N       0.09624   0.82412   0.90549  -0.3340000000
H          H       0.40377   0.67588   0.90549   0.1340000000
H          H       0.09624   0.82412   0.59451   0.0270000000
H          H       0.32412   0.90377   0.59451   0.0630000000
N          N       0.17588   0.59624   0.90549  -0.3350000000
H          H       0.32412   0.90377   0.90549   0.1140000000
N          N       0.17588   0.59624   0.59451  -0.3320000000
H          H       0.09624   0.67588   0.90549   0.0930000000
H          H       0.40376   0.82412   0.59451   0.0420000000
H          H       0.09624   0.67588   0.59451   0.0270000000
H          H       0.40377   0.82412   0.90549   0.1330000000
H          H       0.17588   0.90377   0.90549   0.0820000000
H          H       0.32412   0.59624   0.59451   0.0550000000
N          N       0.17588   0.90377   0.59451  -0.3270000000
H          H       0.32412   0.59624   0.90549   0.1250000000
H          H       0.21310   0.78690   0.50000   0.1540000000
H          H       0.28690   0.71310   0.50000   0.1540000000
H          H       0.21310   0.71310   0.50000   0.1540000000
H          H       0.28690   0.78690   0.50000   0.1540000000
H          H       0.46309   0.53690   0.75000   0.1980000000
H          H       0.03690   0.96310   0.75000   0.1990000000
H          H       0.46309   0.96310   0.75000   0.1550000000
H          H       0.03690   0.53690   0.75000   0.2410000000
H          H       0.19363   0.53286   0.50000  -0.0070000000
H          H       0.30636   0.96714   0.50000  -0.0020000000
H          H       0.03286   0.80636   0.50000  -0.0090000000
H          H       0.46713   0.69363   0.50000   0.0030000000
H          H       0.03286   0.69363   0.50000  -0.0270000000
N          N       0.19363   0.96714   0.50000  -0.2200000000
H          H       0.30636   0.53286   0.50000  -0.0330000000
N          N       0.05636   0.78286   0.75000  -0.3290000000
H          H       0.44363   0.71714   0.75000   0.0740000000
H          H       0.21714   0.55636   0.75000   0.0910000000
H          H       0.28286   0.94363   0.75000   0.0440000000
H          H       0.21714   0.94363   0.75000   0.0760000000
N          N       0.28286   0.55636   0.75000  -0.3290000000
H          H       0.05636   0.71714   0.75000   0.0920000000
H          H       0.44363   0.78286   0.75000   0.0430000000
O          O       0.15845   0.52956   0.75000  -0.7260000000
O          O       0.34155   0.97044   0.75000  -0.8300000000
O          O       0.02956   0.84155   0.75000  -0.7780000000
O          O       0.47044   0.65845   0.75000  -0.8190000000
O          O       0.02956   0.65845   0.75000  -0.7260000000
O          O       0.47044   0.84155   0.75000  -0.8340000000
O          O       0.15845   0.97044   0.75000  -0.8100000000
O          O       0.34155   0.52956   0.75000  -0.7750000000
O          O       0.09155   0.77956   0.50000  -0.8700000000
O          O       0.40845   0.72044   0.50000  -0.8670000000
O          O       0.22044   0.59155   0.50000  -0.8740000000
O          O       0.27956   0.90845   0.50000  -0.8680000000
O          O       0.22044   0.90845   0.50000  -0.8740000000
O          O       0.27955   0.59155   0.50000  -0.8660000000
O          O       0.09155   0.72044   0.50000  -0.8600000000
O          O       0.40845   0.77956   0.50000  -0.8790000000
O          O       0.34958   0.75000   0.96617  -0.9390000000
O          O       0.15043   0.75000   0.53383  -1.2840000000
O          O       0.34958   0.75000   0.53383  -1.2880000000
O          O       0.15043   0.75000   0.96617  -0.9400000000
O          O       0.25000   0.65042   0.96617  -0.9410000000
O          O       0.25000   0.84957   0.53383  -1.2900000000
O          O       0.25000   0.65043   0.53383  -1.2880000000
O          O       0.25000   0.84957   0.96617  -0.9370000000
O          O       0.00000   0.59957   0.71617  -1.1750000000
O          O       0.00000   0.90043   0.78383  -1.1640000000
O          O      -0.00000   0.59957   0.78383  -1.1490000000
O          O       0.00000   0.90043   0.71617  -1.1870000000
O          O       0.40042   0.50000   0.71617  -1.1900000000
O          O       0.09957   0.50000   0.78383  -1.1470000000
O          O       0.40042   0.50000   0.78383  -1.1600000000
O          O       0.09957   0.50000   0.71617  -1.1740000000
O          O       0.11472   0.57301   0.70944  -0.7130000000
O          O       0.38528   0.92700   0.79056  -0.7490000000
O          O       0.11472   0.57301   0.79056  -0.7020000000
O          O       0.38528   0.92700   0.70944  -0.7830000000
O          O       0.07301   0.88527   0.70944  -0.7220000000
O          O       0.42699   0.61472   0.79056  -0.7740000000
O          O       0.07301   0.88527   0.79056  -0.7110000000
O          O       0.42699   0.61472   0.70944  -0.7800000000
O          O       0.07301   0.61472   0.79056  -0.7030000000
O          O       0.42699   0.88527   0.70944  -0.7590000000
O          O       0.07301   0.61472   0.70944  -0.7130000000
O          O       0.42699   0.88527   0.79056  -0.7780000000
O          O       0.11473   0.92700   0.79056  -0.7260000000
O          O       0.38527   0.57301   0.70944  -0.7400000000
O          O       0.11473   0.92700   0.70944  -0.7370000000
O          O       0.38527   0.57301   0.79056  -0.7300000000
O          O       0.13527   0.82301   0.54056  -0.8020000000
O          O       0.36473   0.67699   0.95945  -0.5080000000
O          O       0.13527   0.82300   0.95945  -0.5680000000
O          O       0.36473   0.67700   0.54056  -0.7880000000
O          O       0.17700   0.63528   0.54056  -0.8280000000
O          O       0.32301   0.86472   0.95945  -0.5100000000
O          O       0.17699   0.63527   0.95945  -0.5660000000
O          O       0.32300   0.86473   0.54056  -0.7910000000
O          O       0.17699   0.86472   0.95945  -0.5280000000
O          O       0.32300   0.63528   0.54056  -0.7850000000
O          O       0.17699   0.86473   0.54056  -0.8310000000
O          O       0.32301   0.63527   0.95945  -0.5050000000
O          O       0.13527   0.67699   0.95945  -0.5220000000
O          O       0.36473   0.82301   0.54056  -0.7920000000
O          O       0.13527   0.67700   0.54056  -0.7990000000
O          O       0.36473   0.82300   0.95945  -0.5100000000
O          O       0.05487   0.55487   0.75000  -1.1460000000
O          O       0.44512   0.94512   0.75000  -1.1860000000
O          O       0.05487   0.94512   0.75000  -1.1660000000
O          O       0.44512   0.55487   0.75000  -1.1660000000
O          O       0.19512   0.80487   0.50000  -1.3190000000
O          O       0.30487   0.69512   0.50000  -1.3200000000
O          O       0.19512   0.69512   0.50000  -1.3200000000
O          O       0.30487   0.80487   0.50000  -1.3200000000
Ti         Ti      0.39492   0.53593   0.75000   3.1050000000
Ti         Ti      0.10508   0.96407   0.75000   3.0960000000
Ti         Ti      0.46406   0.89492   0.75000   3.0960000000
Ti         Ti      0.03594   0.60508   0.75000   3.1040000000
Ti         Ti      0.46406   0.60508   0.75000   3.0960000000
Ti         Ti      0.03593   0.89492   0.75000   3.1040000000
Ti         Ti      0.39492   0.96407   0.75000   3.0960000000
Ti         Ti      0.10508   0.53593   0.75000   3.1040000000
Ti         Ti      0.14492   0.78594   0.50000   3.0730000000
Ti         Ti      0.35508   0.71406   0.50000   3.0720000000
Ti         Ti      0.21407   0.64492   0.50000   3.0720000000
Ti         Ti      0.28593   0.85508   0.50000   3.0720000000
Ti         Ti      0.21407   0.85508   0.50000   3.0730000000
Ti         Ti      0.28593   0.64492   0.50000   3.0720000000
Ti         Ti      0.14492   0.71406   0.50000   3.0730000000
Ti         Ti      0.35508   0.78594   0.50000   3.0720000000
H          H       0.18419   0.89483   0.57059   0.1640000000
H          H       0.18768   0.92385   0.60616   0.1040000000
H          H       0.32610   0.93764   0.64387   0.0970000000
H          H       0.35521   0.93424   0.67938   0.1570000000
H          H       0.43764   0.67390   0.64387   0.1000000000
H          H       0.43424   0.64479   0.67938   0.1580000000
H          H       0.18419   0.60517   0.57059   0.1720000000
H          H       0.18768   0.57615   0.60616   0.1270000000
H          H       0.18764   0.57610   0.89388   0.1940000000
H          H       0.18424   0.60521   0.92938   0.2420000000
H          H       0.07610   0.81236   0.89388   0.1900000000
H          H       0.10521   0.81576   0.92938   0.2400000000
H          H       0.43419   0.85517   0.82059   0.1720000000
H          H       0.43768   0.82615   0.85616   0.1400000000
H          H       0.43419   0.64484   0.82059   0.1740000000
H          H       0.43768   0.67386   0.85616   0.1430000000
H          H       0.16786   0.96905   0.49810  -0.0050000000
H          H       0.19514   0.94036   0.49336   0.0780000000
H          H       0.48195   0.82888   0.49998  -0.0180000000
H          H       0.44052   0.80637   0.50345   0.0980000000
N          N       0.46713   0.80636   0.50000  -0.2340000000
H          H       0.05599   0.80866   0.75000   0.1890000000
H          H       0.07890   0.77029   0.75000   0.1300000000
H          H       0.30866   0.55599   0.75000   0.1900000000
H          H       0.27029   0.57890   0.75000   0.1300000000
C          C       0.67428   0.50000   0.75000   0.5530000000
C          C       0.82572   0.50000   0.75000   0.6300000000
C          C       0.50000   0.82572   0.75000   0.6300000000
C          C       0.50000   0.67428   0.75000   0.5540000000
C          C       0.75000   0.92428   0.50000   0.4760000000
C          C       0.75000   0.57573   0.50000   0.5000000000
C          C       0.57573   0.75000   0.50000   0.5000000000
C          C       0.92428   0.75000   0.50000   0.4770000000
C          C       0.96336   0.75000   0.50000  -0.1720000000
C          C       0.53665   0.75000   0.50000  -0.2230000000
C          C       0.75000   0.53664   0.50000  -0.2250000000
C          C       0.75000   0.96336   0.50000  -0.1690000000
C          C       0.50000   0.71336   0.75000   0.0400000000
C          C       0.50000   0.78664   0.75000  -0.1690000000
C          C       0.78664   0.50000   0.75000  -0.1690000000
C          C       0.71336   0.50000   0.75000   0.0400000000
C          C       0.98177   0.78186   0.50000   0.0190000000
C          C       0.51823   0.71814   0.50000   0.1300000000
C          C       0.78186   0.51823   0.50000   0.1270000000
C          C       0.71814   0.98177   0.50000   0.0150000000
C          C       0.78186   0.98177   0.50000  -0.1650000000
C          C       0.71814   0.51823   0.50000   0.0650000000
C          C       0.98177   0.71814   0.50000  -0.1650000000
C          C       0.51823   0.78186   0.50000   0.0650000000
C          C       0.76823   0.53186   0.75000   0.3080000000
C          C       0.73177   0.96814   0.75000  -0.1320000000
C          C       0.96814   0.76823   0.75000  -0.0030000000
C          C       0.53186   0.73177   0.75000  -0.1400000000
C          C       0.96814   0.73177   0.75000  -0.1340000000
C          C       0.53186   0.76823   0.75000   0.3070000000
C          C       0.76822   0.96814   0.75000  -0.0000000000
C          C       0.73177   0.53186   0.75000  -0.1400000000
C          C       0.61274   0.61274   0.65901  -0.0660000000
C          C       0.88726   0.88726   0.84100  -0.2870000000
C          C       0.61274   0.61274   0.84100  -0.0520000000
C          C       0.88726   0.88726   0.65901  -0.2830000000
C          C       0.61274   0.88726   0.65901  -0.0780000000
C          C       0.88726   0.61274   0.84100  -0.2790000000
C          C       0.61274   0.88726   0.84100  -0.0640000000
C          C       0.88726   0.61274   0.65901  -0.2760000000
C          C       0.63726   0.86274   0.90900  -0.2210000000
C          C       0.86274   0.63726   0.59099  -0.0880000000
C          C       0.63726   0.86274   0.59099  -0.2840000000
C          C       0.86274   0.63726   0.90900   0.0050000000
C          C       0.63726   0.63726   0.90900  -0.2180000000
C          C       0.86274   0.86274   0.59099  -0.0920000000
C          C       0.63726   0.63726   0.59099  -0.2850000000
C          C       0.86274   0.86274   0.90900   0.0010000000
C          C       0.84930   0.84930   0.94503   0.4830000000
C          C       0.65070   0.65070   0.55496   0.5880000000
C          C       0.84930   0.84930   0.55496   0.5070000000
C          C       0.65071   0.65071   0.94503   0.5720000000
C          C       0.84930   0.65071   0.94503   0.4850000000
C          C       0.65071   0.84930   0.55496   0.5830000000
C          C       0.84930   0.65070   0.55496   0.5100000000
C          C       0.65071   0.84930   0.94503   0.5690000000
C          C       0.90070   0.59930   0.69503   0.5860000000
C          C       0.59930   0.90070   0.80496   0.5220000000
C          C       0.90070   0.59930   0.80496   0.6010000000
C          C       0.59930   0.90070   0.69503   0.5130000000
C          C       0.90070   0.90070   0.69503   0.5840000000
C          C       0.59930   0.59930   0.80496   0.5220000000
C          C       0.90070   0.90070   0.80496   0.5990000000
C          C       0.59930   0.59930   0.69503   0.5130000000
C          C       0.59639   0.64142   0.64190  -0.0470000000
C          C       0.90361   0.85858   0.85809   0.3410000000
C          C       0.59639   0.64142   0.85809  -0.0160000000
C          C       0.90361   0.85858   0.64190   0.0710000000
C          C       0.64142   0.90361   0.64190  -0.1340000000
C          C       0.85858   0.59639   0.85809   0.1200000000
C          C       0.64142   0.90361   0.85809  -0.0210000000
C          C       0.85858   0.59639   0.64190   0.0770000000
C          C       0.64142   0.59639   0.85809  -0.1160000000
C          C       0.85858   0.90361   0.64190   0.2890000000
C          C       0.64142   0.59639   0.64190  -0.1340000000
C          C       0.85858   0.90361   0.85809   0.1140000000
C          C       0.59639   0.85858   0.85809  -0.1170000000
C          C       0.90361   0.64142   0.64190   0.2920000000
C          C       0.59639   0.85858   0.64190  -0.0460000000
C          C       0.90361   0.64142   0.85809   0.3440000000
C          C       0.65361   0.89142   0.60810   0.2930000000
C          C       0.84639   0.60858   0.89191  -0.0470000000
C          C       0.65361   0.89142   0.89191   0.0880000000
C          C       0.84639   0.60858   0.60810  -0.0470000000
C          C       0.60858   0.65361   0.60810   0.0840000000
C          C       0.89142   0.84639   0.89191  -0.1460000000
C          C       0.60858   0.65361   0.89191   0.0980000000
C          C       0.89142   0.84639   0.60810  -0.0550000000
C          C       0.60858   0.84639   0.89191   0.3340000000
C          C       0.89142   0.65361   0.60810  -0.1350000000
C          C       0.60858   0.84639   0.60810   0.0780000000
C          C       0.89142   0.65361   0.89191  -0.1420000000
C          C       0.65361   0.60858   0.89191   0.3410000000
C          C       0.84639   0.89142   0.60810  -0.1380000000
C          C       0.65361   0.60858   0.60810   0.3090000000
C          C       0.84639   0.89142   0.89191  -0.0560000000
N          N       0.92588   0.84624   0.84451  -0.3390000000
H          H       0.57412   0.65377   0.65549   0.0640000000
H          H       0.92588   0.84624   0.65549   0.0090000000
H          H       0.57412   0.65377   0.84451   0.0850000000
H          H       0.84624   0.57412   0.84451   0.0480000000
H          H       0.65376   0.92588   0.65549   0.0630000000
H          H       0.84624   0.57412   0.65549   0.0280000000
H          H       0.65376   0.92588   0.84451   0.0640000000
H          H       0.57412   0.84624   0.65549   0.0600000000
N          N       0.92588   0.65377   0.84451  -0.3390000000
H          H       0.57412   0.84624   0.84451   0.0990000000
N          N       0.92588   0.65377   0.65549  -0.3250000000
H          H       0.65377   0.57412   0.65549   0.0840000000
H          H       0.84623   0.92588   0.84451   0.0290000000
H          H       0.65377   0.57412   0.84451   0.1040000000
N          N       0.84623   0.92588   0.65549  -0.3250000000
H          H       0.90377   0.67588   0.59451   0.0650000000
N          N       0.59624   0.82412   0.90549  -0.3340000000
H          H       0.90377   0.67588   0.90549   0.1340000000
H          H       0.59624   0.82412   0.59451   0.0270000000
H          H       0.82412   0.90377   0.59451   0.0630000000
N          N       0.67588   0.59624   0.90549  -0.3350000000
H          H       0.82412   0.90377   0.90549   0.1140000000
N          N       0.67588   0.59624   0.59451  -0.3320000000
H          H       0.59624   0.67588   0.90549   0.0930000000
H          H       0.90377   0.82412   0.59451   0.0420000000
H          H       0.59624   0.67588   0.59451   0.0270000000
H          H       0.90377   0.82412   0.90549   0.1330000000
H          H       0.67588   0.90377   0.90549   0.0820000000
H          H       0.82412   0.59624   0.59451   0.0550000000
N          N       0.67588   0.90377   0.59451  -0.3270000000
H          H       0.82412   0.59624   0.90549   0.1250000000
H          H       0.71310   0.78690   0.50000   0.1540000000
H          H       0.78690   0.71310   0.50000   0.1540000000
H          H       0.71310   0.71310   0.50000   0.1540000000
H          H       0.78690   0.78690   0.50000   0.1540000000
H          H       0.96310   0.53690   0.75000   0.1980000000
H          H       0.53690   0.96310   0.75000   0.1990000000
H          H       0.96309   0.96310   0.75000   0.1550000000
H          H       0.53690   0.53690   0.75000   0.2410000000
H          H       0.69363   0.53286   0.50000  -0.0070000000
H          H       0.80636   0.96714   0.50000  -0.0020000000
H          H       0.53287   0.80636   0.50000  -0.0090000000
H          H       0.96714   0.69363   0.50000   0.0030000000
H          H       0.53287   0.69363   0.50000  -0.0270000000
N          N       0.69363   0.96714   0.50000  -0.2200000000
H          H       0.80636   0.53286   0.50000  -0.0330000000
N          N       0.55636   0.78286   0.75000  -0.3290000000
H          H       0.94363   0.71714   0.75000   0.0740000000
H          H       0.71714   0.55636   0.75000   0.0910000000
H          H       0.78286   0.94363   0.75000   0.0440000000
H          H       0.71713   0.94363   0.75000   0.0760000000
N          N       0.78286   0.55636   0.75000  -0.3290000000
H          H       0.55636   0.71714   0.75000   0.0920000000
H          H       0.94363   0.78286   0.75000   0.0430000000
O          O       0.65845   0.52956   0.75000  -0.7260000000
O          O       0.84155   0.97044   0.75000  -0.8300000000
O          O       0.52956   0.84155   0.75000  -0.7780000000
O          O       0.97044   0.65845   0.75000  -0.8190000000
O          O       0.52956   0.65845   0.75000  -0.7260000000
O          O       0.97044   0.84155   0.75000  -0.8340000000
O          O       0.65845   0.97044   0.75000  -0.8100000000
O          O       0.84155   0.52956   0.75000  -0.7750000000
O          O       0.59155   0.77956   0.50000  -0.8700000000
O          O       0.90845   0.72044   0.50000  -0.8670000000
O          O       0.72044   0.59155   0.50000  -0.8740000000
O          O       0.77955   0.90845   0.50000  -0.8680000000
O          O       0.72044   0.90845   0.50000  -0.8740000000
O          O       0.77956   0.59155   0.50000  -0.8660000000
O          O       0.59155   0.72044   0.50000  -0.8600000000
O          O       0.90845   0.77956   0.50000  -0.8790000000
O          O       0.84957   0.75000   0.96617  -0.9390000000
O          O       0.65043   0.75000   0.53383  -1.2840000000
O          O       0.84957   0.75000   0.53383  -1.2880000000
O          O       0.65042   0.75000   0.96617  -0.9400000000
O          O       0.75000   0.65042   0.96617  -0.9410000000
O          O       0.75000   0.84957   0.53383  -1.2900000000
O          O       0.75000   0.65043   0.53383  -1.2880000000
O          O       0.75000   0.84957   0.96617  -0.9370000000
O          O       0.50000   0.59957   0.71617  -1.1750000000
O          O       0.50000   0.90043   0.78383  -1.1640000000
O          O       0.50000   0.59957   0.78383  -1.1490000000
O          O       0.50000   0.90043   0.71617  -1.1870000000
O          O       0.90043   0.50000   0.71617  -1.1900000000
O          O       0.59957   0.50000   0.78383  -1.1470000000
O          O       0.90043   0.50000   0.78383  -1.1600000000
O          O       0.59957   0.50000   0.71617  -1.1740000000
O          O       0.61472   0.57301   0.70944  -0.7130000000
O          O       0.88528   0.92700   0.79056  -0.7490000000
O          O       0.61472   0.57301   0.79056  -0.7020000000
O          O       0.88528   0.92700   0.70944  -0.7830000000
O          O       0.57301   0.88527   0.70944  -0.7220000000
O          O       0.92700   0.61472   0.79056  -0.7740000000
O          O       0.57301   0.88527   0.79056  -0.7110000000
O          O       0.92700   0.61472   0.70944  -0.7800000000
O          O       0.57301   0.61472   0.79056  -0.7030000000
O          O       0.92700   0.88527   0.70944  -0.7590000000
O          O       0.57301   0.61472   0.70944  -0.7130000000
O          O       0.92700   0.88527   0.79056  -0.7780000000
O          O       0.61472   0.92700   0.79056  -0.7260000000
O          O       0.88527   0.57301   0.70944  -0.7400000000
O          O       0.61472   0.92700   0.70944  -0.7370000000
O          O       0.88527   0.57301   0.79056  -0.7300000000
O          O       0.63528   0.82301   0.54056  -0.8020000000
O          O       0.86472   0.67699   0.95945  -0.5080000000
O          O       0.63528   0.82300   0.95945  -0.5680000000
O          O       0.86473   0.67700   0.54056  -0.7880000000
O          O       0.67700   0.63528   0.54056  -0.8280000000
O          O       0.82300   0.86472   0.95945  -0.5100000000
O          O       0.67699   0.63527   0.95945  -0.5660000000
O          O       0.82301   0.86473   0.54056  -0.7910000000
O          O       0.67699   0.86472   0.95945  -0.5280000000
O          O       0.82301   0.63528   0.54056  -0.7850000000
O          O       0.67700   0.86473   0.54056  -0.8310000000
O          O       0.82300   0.63527   0.95945  -0.5050000000
O          O       0.63527   0.67699   0.95945  -0.5220000000
O          O       0.86473   0.82301   0.54056  -0.7920000000
O          O       0.63528   0.67700   0.54056  -0.7990000000
O          O       0.86472   0.82300   0.95945  -0.5100000000
O          O       0.55487   0.55487   0.75000  -1.1460000000
O          O       0.94512   0.94512   0.75000  -1.1860000000
O          O       0.55487   0.94512   0.75000  -1.1660000000
O          O       0.94512   0.55487   0.75000  -1.1660000000
O          O       0.69512   0.80487   0.50000  -1.3190000000
O          O       0.80487   0.69512   0.50000  -1.3200000000
O          O       0.69512   0.69512   0.50000  -1.3200000000
O          O       0.80487   0.80487   0.50000  -1.3200000000
Ti         Ti      0.89492   0.53593   0.75000   3.1050000000
Ti         Ti      0.60508   0.96407   0.75000   3.0960000000
Ti         Ti      0.96407   0.89492   0.75000   3.0960000000
Ti         Ti      0.53594   0.60508   0.75000   3.1040000000
Ti         Ti      0.96407   0.60508   0.75000   3.0960000000
Ti         Ti      0.53594   0.89492   0.75000   3.1040000000
Ti         Ti      0.89492   0.96407   0.75000   3.0960000000
Ti         Ti      0.60508   0.53593   0.75000   3.1040000000
Ti         Ti      0.64492   0.78594   0.50000   3.0730000000
Ti         Ti      0.85508   0.71406   0.50000   3.0720000000
Ti         Ti      0.71406   0.64492   0.50000   3.0720000000
Ti         Ti      0.78594   0.85508   0.50000   3.0720000000
Ti         Ti      0.71406   0.85508   0.50000   3.0730000000
Ti         Ti      0.78594   0.64492   0.50000   3.0720000000
Ti         Ti      0.64492   0.71406   0.50000   3.0730000000
Ti         Ti      0.85508   0.78594   0.50000   3.0720000000
H          H       0.68419   0.89483   0.57059   0.1640000000
H          H       0.68768   0.92385   0.60616   0.1040000000
H          H       0.82610   0.93764   0.64387   0.0970000000
H          H       0.85521   0.93424   0.67938   0.1570000000
H          H       0.93764   0.67390   0.64387   0.1000000000
H          H       0.93424   0.64479   0.67938   0.1580000000
H          H       0.68419   0.60517   0.57059   0.1720000000
H          H       0.68769   0.57615   0.60616   0.1270000000
H          H       0.68764   0.57610   0.89388   0.1940000000
H          H       0.68424   0.60521   0.92938   0.2420000000
H          H       0.57610   0.81236   0.89388   0.1900000000
H          H       0.60521   0.81576   0.92938   0.2400000000
H          H       0.93420   0.85517   0.82059   0.1720000000
H          H       0.93769   0.82615   0.85616   0.1400000000
H          H       0.93420   0.64484   0.82059   0.1740000000
H          H       0.93769   0.67386   0.85616   0.1430000000
H          H       0.66786   0.96905   0.49810  -0.0050000000
H          H       0.69513   0.94036   0.49336   0.0780000000
H          H       0.98196   0.82888   0.49998  -0.0180000000
H          H       0.94052   0.80637   0.50345   0.0980000000
N          N       0.96714   0.80636   0.50000  -0.2340000000
H          H       0.55599   0.80866   0.75000   0.1890000000
H          H       0.57890   0.77029   0.75000   0.1300000000
H          H       0.80866   0.55599   0.75000   0.1900000000
H          H       0.77029   0.57890   0.75000   0.1300000000
