data_crystal
 
_cell_length_a    42.48440
_cell_length_b    42.48020
_cell_length_c    31.96080
_cell_angle_alpha 90.00000
_cell_angle_beta  90.00000
_cell_angle_gamma 90.00000
 
_symmetry_space_group_name_Hall 'P 1'
_symmetry_space_group_name_H-M  'P 1'
 
loop_
_symmetry_equiv_pos_as_xyz
 'x,y,z' 
 
loop_
_atom_site_label
_atom_site_type_symbol
_atom_site_fract_x
_atom_site_fract_y
_atom_site_fract_z
_atom_site_charge
Al         Al      0.12442   0.09123   0.01604   1.6720740000
Al         Al      0.37466   0.34149   0.18283   1.6692670000
Al         Al      0.12534   0.15851   0.18283   1.6692970000
Al         Al      0.37558   0.40877   0.01603   1.6720180000
Al         Al      0.40876   0.37467   0.09946   1.6758550000
Al         Al      0.15844   0.12444   0.26615   1.6656760000
Al         Al      0.34156   0.37556   0.26615   1.6657720000
Al         Al      0.09123   0.12533   0.09946   1.6754180000
Al         Al      0.12442   0.40876   0.01603   1.6721170000
Al         Al      0.37466   0.15851   0.18283   1.6692060000
Al         Al      0.12534   0.34149   0.18283   1.6695770000
Al         Al      0.37558   0.09123   0.01604   1.6719530000
Al         Al      0.40876   0.12533   0.09946   1.6754570000
Al         Al      0.15844   0.37556   0.26615   1.6657540000
Al         Al      0.34156   0.12444   0.26615   1.6656680000
Al         Al      0.09123   0.37467   0.09946   1.6756630000
O          O       0.07952   0.40950   0.00837  -0.5805920000
O          O       0.12061   0.05842   0.05644  -0.5702340000
O          O       0.12719   0.37759   0.30791  -1.0044880000
O          O       0.16987   0.09043   0.02488  -0.6018870000
O          O       0.12716   0.05871   0.30873  -0.5639920000
O          O       0.32986   0.15883   0.17497  -0.5785950000
O          O       0.36990   0.30810   0.22293  -0.5661270000
O          O       0.37775   0.12720   0.14143  -1.0085000000
O          O       0.41996   0.33974   0.19167  -0.6009590000
O          O       0.37759   0.30924   0.14197  -0.5641210000
O          O       0.17014   0.34117   0.17497  -0.5785270000
O          O       0.13010   0.19190   0.22293  -0.5660360000
O          O       0.12225   0.37279   0.14143  -1.0087250000
O          O       0.08004   0.16026   0.19167  -0.6010700000
O          O       0.12241   0.19076   0.14197  -0.5644120000
O          O       0.42048   0.09050   0.00837  -0.5804130000
O          O       0.37939   0.44159   0.05643  -0.5700580000
O          O       0.37280   0.12242   0.30791  -1.0045190000
O          O       0.33014   0.40957   0.02488  -0.6017790000
O          O       0.37284   0.44129   0.30873  -0.5641740000
O          O       0.09055   0.32980   0.09156  -0.5803330000
O          O       0.44163   0.37002   0.13980  -0.5701580000
O          O       0.12231   0.37768   0.05794  -1.0074630000
O          O       0.40972   0.42005   0.10836  -0.6010150000
O          O       0.44126   0.37774   0.05888  -0.5647880000
O          O       0.34109   0.07961   0.25836  -0.5800050000
O          O       0.19185   0.12050   0.30628  -0.5655990000
O          O       0.37291   0.12733   0.22473  -1.0036240000
O          O       0.16014   0.16983   0.27487  -0.6008560000
O          O       0.19068   0.12700   0.22540  -0.5633770000
O          O       0.15891   0.42040   0.25836  -0.5799990000
O          O       0.30815   0.37950   0.30628  -0.5655550000
O          O       0.12709   0.37267   0.22473  -1.0038420000
O          O       0.33986   0.33017   0.27487  -0.6007790000
O          O       0.30931   0.37300   0.22540  -0.5633100000
O          O       0.40945   0.17020   0.09157  -0.5802210000
O          O       0.05836   0.12998   0.13980  -0.5699250000
O          O       0.37768   0.12231   0.05794  -1.0076240000
O          O       0.09028   0.07994   0.10836  -0.6006930000
O          O       0.05874   0.12227   0.05889  -0.5645070000
O          O       0.07952   0.09050   0.00837  -0.5805050000
O          O       0.12060   0.44159   0.05643  -0.5701460000
O          O       0.12720   0.12242   0.30791  -1.0044700000
O          O       0.16986   0.40957   0.02488  -0.6017120000
O          O       0.12716   0.44129   0.30873  -0.5638610000
O          O       0.32986   0.34117   0.17497  -0.5785590000
O          O       0.36990   0.19190   0.22293  -0.5662120000
O          O       0.37775   0.37279   0.14142  -1.0087100000
O          O       0.41996   0.16026   0.19167  -0.6009550000
O          O       0.37759   0.19075   0.14197  -0.5640870000
O          O       0.17014   0.15883   0.17497  -0.5785300000
O          O       0.13010   0.30810   0.22293  -0.5659510000
O          O       0.12225   0.12720   0.14143  -1.0085080000
O          O       0.08005   0.33974   0.19167  -0.6011180000
O          O       0.12241   0.30924   0.14197  -0.5644010000
O          O       0.42048   0.40950   0.00837  -0.5804490000
O          O       0.37939   0.05842   0.05644  -0.5699980000
O          O       0.37281   0.37759   0.30791  -1.0046540000
O          O       0.33014   0.09043   0.02488  -0.6019160000
O          O       0.37284   0.05871   0.30873  -0.5639600000
O          O       0.09055   0.17020   0.09157  -0.5801260000
O          O       0.44164   0.12997   0.13980  -0.5700630000
O          O       0.12231   0.12231   0.05794  -1.0075690000
O          O       0.40972   0.07994   0.10836  -0.6007170000
O          O       0.44126   0.12227   0.05889  -0.5646320000
O          O       0.34110   0.42040   0.25836  -0.5798860000
O          O       0.19185   0.37950   0.30628  -0.5656190000
O          O       0.37292   0.37267   0.22473  -1.0037120000
O          O       0.16014   0.33017   0.27487  -0.6008020000
O          O       0.19068   0.37300   0.22540  -0.5634340000
O          O       0.15890   0.07961   0.25836  -0.5801660000
O          O       0.30815   0.12050   0.30628  -0.5657040000
O          O       0.12709   0.12733   0.22473  -1.0037310000
O          O       0.33986   0.16983   0.27487  -0.6007680000
O          O       0.30931   0.12700   0.22540  -0.5632640000
O          O       0.40945   0.32980   0.09156  -0.5805050000
O          O       0.05836   0.37002   0.13980  -0.5700330000
O          O       0.37768   0.37768   0.05794  -1.0076740000
O          O       0.09028   0.42005   0.10836  -0.6008710000
O          O       0.05874   0.37774   0.05888  -0.5647040000
O          O       0.13956  -0.00000   0.27945  -0.0667180000
O          O       0.38917   0.24999   0.11263  -0.0693820000
O          O       0.11083   0.24999   0.11263  -0.0695240000
O          O       0.36044  -0.00000   0.27945  -0.0667700000
O          O       0.00000   0.38914   0.02918  -0.0631210000
O          O       0.25000   0.36023   0.19736  -0.0660770000
O          O      -0.00000   0.11086   0.02918  -0.0632130000
O          O       0.25000   0.13977   0.19736  -0.0658120000
O          O       0.35717   0.25000   0.25217  -0.0636220000
O          O       0.10799  -0.00001   0.08549  -0.0618830000
O          O       0.39201  -0.00001   0.08549  -0.0617380000
O          O       0.14284   0.25000   0.25217  -0.0634730000
O          O       0.25000   0.10794   0.00225  -0.0651900000
O          O      -0.00000   0.14279   0.16877  -0.0636450000
O          O       0.25000   0.39206   0.00225  -0.0651260000
O          O       0.00000   0.35721   0.16877  -0.0635390000
C          C       0.10368   0.05704   0.08923   0.5884530000
C          C       0.14468   0.05695   0.27647   0.5912540000
C          C       0.15000   0.02581   0.25794   0.0688290000
C          C       0.34703   0.27585   0.27399   0.0690900000
C          C       0.08265   0.01667   0.14358  -0.1695040000
C          C       0.16645   0.48334   0.22265  -0.1706500000
C          C       0.35296   0.30705   0.25574   0.5847350000
C          C       0.39508   0.30722   0.10974   0.5895420000
C          C       0.40026   0.27585   0.09156   0.0701680000
C          C       0.09817   0.02583   0.10757   0.0673360000
C          C       0.33098   0.26668   0.30958  -0.1711000000
C          C       0.41752   0.23333   0.05699  -0.1715730000
C          C       0.14704   0.19295   0.25574   0.5847840000
C          C       0.10493   0.19278   0.10974   0.5893440000
C          C       0.09974   0.22414   0.09155   0.0703160000
C          C       0.40182   0.47417   0.10757   0.0674690000
C          C       0.16901   0.23332   0.30958  -0.1709430000
C          C       0.08248   0.26666   0.05700  -0.1714340000
C          C       0.39632   0.44295   0.08923   0.5886500000
C          C       0.35533   0.44305   0.27647   0.5910980000
C          C       0.35000   0.47419   0.25794   0.0687700000
C          C       0.15297   0.22415   0.27399   0.0690390000
C          C       0.41735   0.48333   0.14358  -0.1703490000
C          C       0.33355   0.01667   0.22265  -0.1705010000
C          C       0.44294   0.35301   0.17250   0.5887240000
C          C       0.44304   0.39505   0.02646   0.5905550000
C          C       0.47421   0.39995   0.00785   0.0660910000
C          C       0.22415   0.09797   0.02422   0.0704290000
C          C       0.48333   0.33127   0.22638  -0.1701250000
C          C       0.01666   0.41673   0.30618  -0.1699910000
C          C       0.19295   0.10362   0.00582   0.5853220000
C          C       0.19276   0.14474   0.19343   0.5872860000
C          C       0.22417   0.15035   0.17576   0.0696560000
C          C       0.47417   0.34718   0.19067   0.0688060000
C          C       0.23333   0.08220   0.06003  -0.1714930000
C          C       0.26666   0.16701   0.14069  -0.1712890000
C          C       0.30706   0.39638   0.00582   0.5852150000
C          C       0.30724   0.35526   0.19343   0.5873230000
C          C       0.27583   0.34966   0.17576   0.0696690000
C          C       0.02584   0.15282   0.19067   0.0689370000
C          C       0.26668   0.41780   0.06003  -0.1714880000
C          C       0.23334   0.33298   0.14069  -0.1712080000
C          C       0.05707   0.14699   0.17250   0.5887220000
C          C       0.05697   0.10495   0.02646   0.5903750000
C          C       0.02579   0.10005   0.00785   0.0662690000
C          C       0.27585   0.40203   0.02421   0.0703250000
C          C       0.01666   0.16873   0.22638  -0.1703180000
C          C       0.48334   0.08327   0.30618  -0.1700230000
C          C       0.10368   0.44295   0.08923   0.5886000000
C          C       0.14467   0.44305   0.27647   0.5909880000
C          C       0.15000   0.47419   0.25794   0.0687060000
C          C       0.34703   0.22415   0.27399   0.0690780000
C          C       0.08265   0.48333   0.14358  -0.1702660000
C          C       0.16645   0.01667   0.22266  -0.1705970000
C          C       0.35296   0.19295   0.25574   0.5848170000
C          C       0.39508   0.19278   0.10974   0.5890470000
C          C       0.40026   0.22414   0.09155   0.0703530000
C          C       0.09818   0.47417   0.10757   0.0674130000
C          C       0.33098   0.23332   0.30958  -0.1707800000
C          C       0.41752   0.26666   0.05699  -0.1717200000
C          C       0.14704   0.30705   0.25574   0.5845790000
C          C       0.10493   0.30722   0.10974   0.5896170000
C          C       0.09974   0.27586   0.09156   0.0699380000
C          C       0.40183   0.02582   0.10757   0.0673890000
C          C       0.16901   0.26668   0.30958  -0.1711100000
C          C       0.08248   0.23333   0.05699  -0.1716070000
C          C       0.39632   0.05704   0.08923   0.5882200000
C          C       0.35533   0.05695   0.27647   0.5910400000
C          C       0.35000   0.02581   0.25794   0.0688920000
C          C       0.15297   0.27585   0.27399   0.0691010000
C          C       0.41735   0.01667   0.14358  -0.1695650000
C          C       0.33355   0.48334   0.22265  -0.1707200000
C          C       0.44294   0.14699   0.17250   0.5887410000
C          C       0.44304   0.10495   0.02646   0.5903680000
C          C       0.47421   0.10005   0.00785   0.0663060000
C          C       0.22415   0.40203   0.02421   0.0704100000
C          C       0.48333   0.16873   0.22638  -0.1704360000
C          C       0.01666   0.08327   0.30618  -0.1701110000
C          C       0.19295   0.39638   0.00582   0.5849970000
C          C       0.19276   0.35526   0.19343   0.5873060000
C          C       0.22417   0.34966   0.17576   0.0698030000
C          C       0.47417   0.15282   0.19067   0.0690230000
C          C       0.23333   0.41780   0.06003  -0.1714000000
C          C       0.26666   0.33299   0.14069  -0.1712970000
C          C       0.30705   0.10362   0.00582   0.5854910000
C          C       0.30724   0.14474   0.19343   0.5873250000
C          C       0.27583   0.15035   0.17576   0.0695050000
C          C       0.02583   0.34718   0.19067   0.0687970000
C          C       0.26667   0.08220   0.06003  -0.1714960000
C          C       0.23334   0.16701   0.14069  -0.1711070000
C          C       0.05707   0.35301   0.17250   0.5889460000
C          C       0.05697   0.39505   0.02646   0.5906400000
C          C       0.02579   0.39995   0.00785   0.0660680000
C          C       0.27585   0.09797   0.02421   0.0701740000
C          C       0.01666   0.33127   0.22638  -0.1704650000
C          C       0.48334   0.41673   0.30618  -0.1699980000
H          H       0.14265   0.12503   0.07139   0.4247420000
H          H       0.28257   0.17802   0.11864   0.1586190000
H          H       0.07241   0.46746   0.16634   0.1572880000
H          H       0.39318   0.37508   0.23845   0.4241610000
H          H       0.03257   0.42795   0.28432   0.1581530000
H          H       0.32039   0.21747   0.33207   0.1578140000
H          H       0.10682   0.12493   0.23846   0.4242690000
H          H       0.46743   0.07204   0.28433   0.1581950000
H          H       0.17960   0.28253   0.33207   0.1579290000
H          H       0.35735   0.37495   0.07137   0.4249070000
H          H       0.21743   0.32198   0.11864   0.1587510000
H          H       0.42759   0.03253   0.16634   0.1570380000
H          H       0.37516   0.39310   0.15499   0.4264670000
H          H       0.32261   0.03256   0.20051   0.1580760000
H          H       0.03252   0.32079   0.24896   0.1571080000
H          H       0.12460   0.14267   0.32162   0.4243670000
H          H       0.07095   0.28256   0.03539   0.1586790000
H          H       0.28253   0.07178   0.08267   0.1579580000
H          H       0.37540   0.35733   0.32161   0.4244400000
H          H       0.42905   0.21744   0.03539   0.1587280000
H          H       0.21748   0.42822   0.08267   0.1578080000
H          H       0.12484   0.10690   0.15499   0.4263680000
H          H       0.17739   0.46744   0.20051   0.1580800000
H          H       0.46747   0.17921   0.24896   0.1573210000
H          H       0.14265   0.37495   0.07138   0.4246620000
H          H       0.28257   0.32198   0.11864   0.1586390000
H          H       0.07241   0.03253   0.16634   0.1570300000
H          H       0.39318   0.12493   0.23846   0.4241100000
H          H       0.03257   0.07204   0.28433   0.1581550000
H          H       0.32040   0.28253   0.33207   0.1579430000
H          H       0.10682   0.37509   0.23845   0.4242960000
H          H       0.46743   0.42795   0.28432   0.1581940000
H          H       0.17960   0.21747   0.33207   0.1578380000
H          H       0.35735   0.12504   0.07138   0.4248730000
H          H       0.21744   0.17802   0.11864   0.1586980000
H          H       0.42759   0.46746   0.16633   0.1572340000
H          H       0.37515   0.10690   0.15498   0.4264130000
H          H       0.32261   0.46744   0.20051   0.1581130000
H          H       0.03252   0.17921   0.24896   0.1570130000
H          H       0.12460   0.35733   0.32161   0.4243760000
H          H       0.07095   0.21744   0.03539   0.1587740000
H          H       0.28253   0.42822   0.08267   0.1578230000
H          H       0.37540   0.14267   0.32161   0.4243430000
H          H       0.42905   0.28256   0.03539   0.1587460000
H          H       0.21748   0.07178   0.08267   0.1578820000
H          H       0.12484   0.39310   0.15499   0.4263700000
H          H       0.17739   0.03256   0.20051   0.1580070000
H          H       0.46747   0.32079   0.24896   0.1572380000
Al         Al      0.62442   0.09123   0.01604   1.6720740000
Al         Al      0.87466   0.34149   0.18283   1.6692670000
Al         Al      0.62534   0.15851   0.18283   1.6692970000
Al         Al      0.87558   0.40877   0.01603   1.6720180000
Al         Al      0.90876   0.37467   0.09946   1.6758550000
Al         Al      0.65844   0.12444   0.26615   1.6656760000
Al         Al      0.84156   0.37556   0.26615   1.6657720000
Al         Al      0.59124   0.12533   0.09946   1.6754180000
Al         Al      0.62442   0.40876   0.01603   1.6721170000
Al         Al      0.87466   0.15851   0.18283   1.6692060000
Al         Al      0.62534   0.34149   0.18283   1.6695770000
Al         Al      0.87558   0.09123   0.01604   1.6719530000
Al         Al      0.90876   0.12533   0.09946   1.6754570000
Al         Al      0.65844   0.37556   0.26615   1.6657540000
Al         Al      0.84156   0.12444   0.26615   1.6656680000
Al         Al      0.59124   0.37467   0.09946   1.6756630000
O          O       0.57952   0.40950   0.00837  -0.5805920000
O          O       0.62061   0.05842   0.05644  -0.5702340000
O          O       0.62720   0.37759   0.30791  -1.0044880000
O          O       0.66987   0.09043   0.02488  -0.6018870000
O          O       0.62716   0.05871   0.30873  -0.5639920000
O          O       0.82986   0.15883   0.17497  -0.5785950000
O          O       0.86990   0.30810   0.22293  -0.5661270000
O          O       0.87775   0.12720   0.14143  -1.0085000000
O          O       0.91995   0.33974   0.19167  -0.6009590000
O          O       0.87759   0.30924   0.14197  -0.5641210000
O          O       0.67014   0.34117   0.17497  -0.5785270000
O          O       0.63010   0.19190   0.22293  -0.5660360000
O          O       0.62225   0.37279   0.14143  -1.0087250000
O          O       0.58005   0.16026   0.19167  -0.6010700000
O          O       0.62241   0.19076   0.14197  -0.5644120000
O          O       0.92048   0.09050   0.00837  -0.5804130000
O          O       0.87940   0.44159   0.05643  -0.5700580000
O          O       0.87280   0.12242   0.30791  -1.0045190000
O          O       0.83014   0.40957   0.02488  -0.6017790000
O          O       0.87284   0.44129   0.30873  -0.5641740000
O          O       0.59055   0.32980   0.09156  -0.5803330000
O          O       0.94163   0.37002   0.13980  -0.5701580000
O          O       0.62232   0.37768   0.05794  -1.0074630000
O          O       0.90972   0.42005   0.10836  -0.6010150000
O          O       0.94125   0.37774   0.05888  -0.5647880000
O          O       0.84109   0.07961   0.25836  -0.5800050000
O          O       0.69185   0.12050   0.30628  -0.5655990000
O          O       0.87292   0.12733   0.22473  -1.0036240000
O          O       0.66014   0.16983   0.27487  -0.6008560000
O          O       0.69069   0.12700   0.22540  -0.5633770000
O          O       0.65891   0.42040   0.25836  -0.5799990000
O          O       0.80815   0.37950   0.30628  -0.5655550000
O          O       0.62709   0.37267   0.22473  -1.0038420000
O          O       0.83986   0.33017   0.27487  -0.6007790000
O          O       0.80931   0.37300   0.22540  -0.5633100000
O          O       0.90945   0.17020   0.09157  -0.5802210000
O          O       0.55836   0.12998   0.13980  -0.5699250000
O          O       0.87769   0.12231   0.05794  -1.0076240000
O          O       0.59028   0.07994   0.10836  -0.6006930000
O          O       0.55875   0.12227   0.05889  -0.5645070000
O          O       0.57952   0.09050   0.00837  -0.5805050000
O          O       0.62061   0.44159   0.05643  -0.5701460000
O          O       0.62720   0.12242   0.30791  -1.0044700000
O          O       0.66987   0.40957   0.02488  -0.6017120000
O          O       0.62716   0.44129   0.30873  -0.5638610000
O          O       0.82986   0.34117   0.17497  -0.5785590000
O          O       0.86990   0.19190   0.22293  -0.5662120000
O          O       0.87775   0.37279   0.14142  -1.0087100000
O          O       0.91995   0.16026   0.19167  -0.6009550000
O          O       0.87759   0.19075   0.14197  -0.5640870000
O          O       0.67014   0.15883   0.17497  -0.5785300000
O          O       0.63010   0.30810   0.22293  -0.5659510000
O          O       0.62225   0.12720   0.14143  -1.0085080000
O          O       0.58005   0.33974   0.19167  -0.6011180000
O          O       0.62241   0.30924   0.14197  -0.5644010000
O          O       0.92048   0.40950   0.00837  -0.5804490000
O          O       0.87940   0.05842   0.05644  -0.5699980000
O          O       0.87281   0.37759   0.30791  -1.0046540000
O          O       0.83014   0.09043   0.02488  -0.6019160000
O          O       0.87284   0.05871   0.30873  -0.5639600000
O          O       0.59055   0.17020   0.09157  -0.5801260000
O          O       0.94164   0.12997   0.13980  -0.5700630000
O          O       0.62232   0.12231   0.05794  -1.0075690000
O          O       0.90972   0.07994   0.10836  -0.6007170000
O          O       0.94125   0.12227   0.05889  -0.5646320000
O          O       0.84110   0.42040   0.25836  -0.5798860000
O          O       0.69185   0.37950   0.30628  -0.5656190000
O          O       0.87292   0.37267   0.22473  -1.0037120000
O          O       0.66014   0.33017   0.27487  -0.6008020000
O          O       0.69069   0.37300   0.22540  -0.5634340000
O          O       0.65890   0.07961   0.25836  -0.5801660000
O          O       0.80815   0.12050   0.30628  -0.5657040000
O          O       0.62709   0.12733   0.22473  -1.0037310000
O          O       0.83986   0.16983   0.27487  -0.6007680000
O          O       0.80931   0.12700   0.22540  -0.5632640000
O          O       0.90945   0.32980   0.09156  -0.5805050000
O          O       0.55836   0.37002   0.13980  -0.5700330000
O          O       0.87769   0.37768   0.05794  -1.0076740000
O          O       0.59028   0.42005   0.10836  -0.6008710000
O          O       0.55875   0.37774   0.05888  -0.5647040000
O          O       0.63956  -0.00000   0.27945  -0.0667180000
O          O       0.88917   0.24999   0.11263  -0.0693820000
O          O       0.61083   0.24999   0.11263  -0.0695240000
O          O       0.86044  -0.00000   0.27945  -0.0667700000
O          O       0.50000   0.38914   0.02918  -0.0631210000
O          O       0.75000   0.36023   0.19736  -0.0660770000
O          O       0.50000   0.11086   0.02918  -0.0632130000
O          O       0.75000   0.13977   0.19736  -0.0658120000
O          O       0.85717   0.25000   0.25217  -0.0636220000
O          O       0.60800  -0.00001   0.08549  -0.0618830000
O          O       0.89201  -0.00001   0.08549  -0.0617380000
O          O       0.64284   0.25000   0.25217  -0.0634730000
O          O       0.75000   0.10794   0.00225  -0.0651900000
O          O       0.50000   0.14279   0.16877  -0.0636450000
O          O       0.75000   0.39206   0.00225  -0.0651260000
O          O       0.50000   0.35721   0.16877  -0.0635390000
C          C       0.60368   0.05704   0.08923   0.5884530000
C          C       0.64467   0.05695   0.27647   0.5912540000
C          C       0.65000   0.02581   0.25794   0.0688290000
C          C       0.84703   0.27585   0.27399   0.0690900000
C          C       0.58265   0.01667   0.14358  -0.1695040000
C          C       0.66646   0.48334   0.22265  -0.1706500000
C          C       0.85296   0.30705   0.25574   0.5847350000
C          C       0.89508   0.30722   0.10974   0.5895420000
C          C       0.90026   0.27585   0.09156   0.0701680000
C          C       0.59818   0.02583   0.10757   0.0673360000
C          C       0.83098   0.26668   0.30958  -0.1711000000
C          C       0.91752   0.23333   0.05699  -0.1715730000
C          C       0.64704   0.19295   0.25574   0.5847840000
C          C       0.60493   0.19278   0.10974   0.5893440000
C          C       0.59974   0.22414   0.09155   0.0703160000
C          C       0.90182   0.47417   0.10757   0.0674690000
C          C       0.66902   0.23332   0.30958  -0.1709430000
C          C       0.58248   0.26666   0.05700  -0.1714340000
C          C       0.89632   0.44295   0.08923   0.5886500000
C          C       0.85533   0.44305   0.27647   0.5910980000
C          C       0.85000   0.47419   0.25794   0.0687700000
C          C       0.65297   0.22415   0.27399   0.0690390000
C          C       0.91735   0.48333   0.14358  -0.1703490000
C          C       0.83355   0.01667   0.22265  -0.1705010000
C          C       0.94294   0.35301   0.17250   0.5887240000
C          C       0.94303   0.39505   0.02646   0.5905550000
C          C       0.97420   0.39995   0.00785   0.0660910000
C          C       0.72415   0.09797   0.02422   0.0704290000
C          C       0.98333   0.33127   0.22638  -0.1701250000
C          C       0.51666   0.41673   0.30618  -0.1699910000
C          C       0.69295   0.10362   0.00582   0.5853220000
C          C       0.69276   0.14474   0.19343   0.5872860000
C          C       0.72417   0.15035   0.17576   0.0696560000
C          C       0.97417   0.34718   0.19067   0.0688060000
C          C       0.73333   0.08220   0.06003  -0.1714930000
C          C       0.76666   0.16701   0.14069  -0.1712890000
C          C       0.80706   0.39638   0.00582   0.5852150000
C          C       0.80724   0.35526   0.19343   0.5873230000
C          C       0.77583   0.34966   0.17576   0.0696690000
C          C       0.52584   0.15282   0.19067   0.0689370000
C          C       0.76668   0.41780   0.06003  -0.1714880000
C          C       0.73335   0.33298   0.14069  -0.1712080000
C          C       0.55707   0.14699   0.17250   0.5887220000
C          C       0.55697   0.10495   0.02646   0.5903750000
C          C       0.52580   0.10005   0.00785   0.0662690000
C          C       0.77585   0.40203   0.02421   0.0703250000
C          C       0.51667   0.16873   0.22638  -0.1703180000
C          C       0.98334   0.08327   0.30618  -0.1700230000
C          C       0.60368   0.44295   0.08923   0.5886000000
C          C       0.64468   0.44305   0.27647   0.5909880000
C          C       0.65000   0.47419   0.25794   0.0687060000
C          C       0.84703   0.22415   0.27399   0.0690780000
C          C       0.58265   0.48333   0.14358  -0.1702660000
C          C       0.66645   0.01667   0.22266  -0.1705970000
C          C       0.85296   0.19295   0.25574   0.5848170000
C          C       0.89508   0.19278   0.10974   0.5890470000
C          C       0.90026   0.22414   0.09155   0.0703530000
C          C       0.59818   0.47417   0.10757   0.0674130000
C          C       0.83098   0.23332   0.30958  -0.1707800000
C          C       0.91752   0.26666   0.05699  -0.1717200000
C          C       0.64704   0.30705   0.25574   0.5845790000
C          C       0.60493   0.30722   0.10974   0.5896170000
C          C       0.59974   0.27586   0.09156   0.0699380000
C          C       0.90182   0.02582   0.10757   0.0673890000
C          C       0.66902   0.26668   0.30958  -0.1711100000
C          C       0.58248   0.23333   0.05699  -0.1716070000
C          C       0.89632   0.05704   0.08923   0.5882200000
C          C       0.85533   0.05695   0.27647   0.5910400000
C          C       0.85000   0.02581   0.25794   0.0688920000
C          C       0.65297   0.27585   0.27399   0.0691010000
C          C       0.91735   0.01667   0.14358  -0.1695650000
C          C       0.83355   0.48334   0.22265  -0.1707200000
C          C       0.94294   0.14699   0.17250   0.5887410000
C          C       0.94303   0.10495   0.02646   0.5903680000
C          C       0.97420   0.10005   0.00785   0.0663060000
C          C       0.72415   0.40203   0.02421   0.0704100000
C          C       0.98333   0.16873   0.22638  -0.1704360000
C          C       0.51666   0.08327   0.30618  -0.1701110000
C          C       0.69295   0.39638   0.00582   0.5849970000
C          C       0.69276   0.35526   0.19343   0.5873060000
C          C       0.72417   0.34966   0.17576   0.0698030000
C          C       0.97417   0.15282   0.19067   0.0690230000
C          C       0.73333   0.41780   0.06003  -0.1714000000
C          C       0.76666   0.33299   0.14069  -0.1712970000
C          C       0.80705   0.10362   0.00582   0.5854910000
C          C       0.80724   0.14474   0.19343   0.5873250000
C          C       0.77583   0.15035   0.17576   0.0695050000
C          C       0.52583   0.34718   0.19067   0.0687970000
C          C       0.76667   0.08220   0.06003  -0.1714960000
C          C       0.73335   0.16701   0.14069  -0.1711070000
C          C       0.55707   0.35301   0.17250   0.5889460000
C          C       0.55697   0.39505   0.02646   0.5906400000
C          C       0.52580   0.39995   0.00785   0.0660680000
C          C       0.77585   0.09797   0.02421   0.0701740000
C          C       0.51667   0.33127   0.22638  -0.1704650000
C          C       0.98334   0.41673   0.30618  -0.1699980000
H          H       0.64265   0.12503   0.07139   0.4247420000
H          H       0.78257   0.17802   0.11864   0.1586190000
H          H       0.57241   0.46746   0.16634   0.1572880000
H          H       0.89318   0.37508   0.23845   0.4241610000
H          H       0.53257   0.42795   0.28432   0.1581530000
H          H       0.82039   0.21747   0.33207   0.1578140000
H          H       0.60682   0.12493   0.23846   0.4242690000
H          H       0.96743   0.07204   0.28433   0.1581950000
H          H       0.67960   0.28253   0.33207   0.1579290000
H          H       0.85735   0.37495   0.07137   0.4249070000
H          H       0.71744   0.32198   0.11864   0.1587510000
H          H       0.92759   0.03253   0.16634   0.1570380000
H          H       0.87516   0.39310   0.15499   0.4264670000
H          H       0.82262   0.03256   0.20051   0.1580760000
H          H       0.53252   0.32079   0.24896   0.1571080000
H          H       0.62461   0.14267   0.32162   0.4243670000
H          H       0.57095   0.28256   0.03539   0.1586790000
H          H       0.78253   0.07178   0.08267   0.1579580000
H          H       0.87540   0.35733   0.32161   0.4244400000
H          H       0.92905   0.21744   0.03539   0.1587280000
H          H       0.71748   0.42822   0.08267   0.1578080000
H          H       0.62485   0.10690   0.15499   0.4263680000
H          H       0.67739   0.46744   0.20051   0.1580800000
H          H       0.96747   0.17921   0.24896   0.1573210000
H          H       0.64265   0.37495   0.07138   0.4246620000
H          H       0.78257   0.32198   0.11864   0.1586390000
H          H       0.57241   0.03253   0.16634   0.1570300000
H          H       0.89318   0.12493   0.23846   0.4241100000
H          H       0.53257   0.07204   0.28433   0.1581550000
H          H       0.82040   0.28253   0.33207   0.1579430000
H          H       0.60682   0.37509   0.23845   0.4242960000
H          H       0.96743   0.42795   0.28432   0.1581940000
H          H       0.67961   0.21747   0.33207   0.1578380000
H          H       0.85735   0.12504   0.07138   0.4248730000
H          H       0.71744   0.17802   0.11864   0.1586980000
H          H       0.92759   0.46746   0.16633   0.1572340000
H          H       0.87515   0.10690   0.15498   0.4264130000
H          H       0.82261   0.46744   0.20051   0.1581130000
H          H       0.53253   0.17921   0.24896   0.1570130000
H          H       0.62461   0.35733   0.32161   0.4243760000
H          H       0.57095   0.21744   0.03539   0.1587740000
H          H       0.78253   0.42822   0.08267   0.1578230000
H          H       0.87540   0.14267   0.32161   0.4243430000
H          H       0.92905   0.28256   0.03539   0.1587460000
H          H       0.71748   0.07178   0.08267   0.1578820000
H          H       0.62484   0.39310   0.15499   0.4263700000
H          H       0.67739   0.03256   0.20051   0.1580070000
H          H       0.96747   0.32079   0.24896   0.1572380000
Al         Al      0.12442   0.59123   0.01604   1.6720740000
Al         Al      0.37466   0.84149   0.18283   1.6692670000
Al         Al      0.12534   0.65851   0.18283   1.6692970000
Al         Al      0.37558   0.90877   0.01603   1.6720180000
Al         Al      0.40876   0.87467   0.09946   1.6758550000
Al         Al      0.15844   0.62444   0.26615   1.6656760000
Al         Al      0.34156   0.87556   0.26615   1.6657720000
Al         Al      0.09123   0.62533   0.09946   1.6754180000
Al         Al      0.12442   0.90877   0.01603   1.6721170000
Al         Al      0.37466   0.65851   0.18283   1.6692060000
Al         Al      0.12534   0.84149   0.18283   1.6695770000
Al         Al      0.37558   0.59123   0.01604   1.6719530000
Al         Al      0.40876   0.62533   0.09946   1.6754570000
Al         Al      0.15844   0.87556   0.26615   1.6657540000
Al         Al      0.34156   0.62444   0.26615   1.6656680000
Al         Al      0.09123   0.87467   0.09946   1.6756630000
O          O       0.07952   0.90950   0.00837  -0.5805920000
O          O       0.12060   0.55841   0.05644  -0.5702340000
O          O       0.12719   0.87759   0.30791  -1.0044880000
O          O       0.16986   0.59042   0.02488  -0.6018870000
O          O       0.12716   0.55871   0.30873  -0.5639920000
O          O       0.32986   0.65883   0.17497  -0.5785950000
O          O       0.36990   0.80810   0.22293  -0.5661270000
O          O       0.37775   0.62720   0.14143  -1.0085000000
O          O       0.41995   0.83974   0.19167  -0.6009590000
O          O       0.37759   0.80925   0.14197  -0.5641210000
O          O       0.17014   0.84117   0.17497  -0.5785270000
O          O       0.13010   0.69190   0.22293  -0.5660360000
O          O       0.12225   0.87280   0.14143  -1.0087250000
O          O       0.08005   0.66027   0.19167  -0.6010700000
O          O       0.12241   0.69076   0.14197  -0.5644120000
O          O       0.42048   0.59050   0.00837  -0.5804130000
O          O       0.37939   0.94159   0.05643  -0.5700580000
O          O       0.37280   0.62242   0.30791  -1.0045190000
O          O       0.33014   0.90957   0.02488  -0.6017790000
O          O       0.37284   0.94129   0.30873  -0.5641740000
O          O       0.09055   0.82980   0.09156  -0.5803330000
O          O       0.44163   0.87003   0.13980  -0.5701580000
O          O       0.12231   0.87768   0.05794  -1.0074630000
O          O       0.40972   0.92005   0.10836  -0.6010150000
O          O       0.44125   0.87774   0.05888  -0.5647880000
O          O       0.34109   0.57961   0.25836  -0.5800050000
O          O       0.19185   0.62050   0.30628  -0.5655990000
O          O       0.37291   0.62733   0.22473  -1.0036240000
O          O       0.16014   0.66983   0.27487  -0.6008560000
O          O       0.19068   0.62700   0.22540  -0.5633770000
O          O       0.15891   0.92040   0.25836  -0.5799990000
O          O       0.30815   0.87950   0.30628  -0.5655550000
O          O       0.12709   0.87267   0.22473  -1.0038420000
O          O       0.33986   0.83018   0.27487  -0.6007790000
O          O       0.30931   0.87300   0.22540  -0.5633100000
O          O       0.40945   0.67019   0.09157  -0.5802210000
O          O       0.05836   0.62998   0.13980  -0.5699250000
O          O       0.37768   0.62231   0.05794  -1.0076240000
O          O       0.09028   0.57994   0.10836  -0.6006930000
O          O       0.05875   0.62227   0.05889  -0.5645070000
O          O       0.07952   0.59050   0.00837  -0.5805050000
O          O       0.12060   0.94159   0.05643  -0.5701460000
O          O       0.12719   0.62242   0.30791  -1.0044700000
O          O       0.16986   0.90957   0.02488  -0.6017120000
O          O       0.12716   0.94129   0.30873  -0.5638610000
O          O       0.32986   0.84117   0.17497  -0.5785590000
O          O       0.36990   0.69190   0.22293  -0.5662120000
O          O       0.37775   0.87280   0.14142  -1.0087100000
O          O       0.41995   0.66026   0.19167  -0.6009550000
O          O       0.37759   0.69075   0.14197  -0.5640870000
O          O       0.17014   0.65883   0.17497  -0.5785300000
O          O       0.13010   0.80810   0.22293  -0.5659510000
O          O       0.12225   0.62720   0.14143  -1.0085080000
O          O       0.08004   0.83974   0.19167  -0.6011180000
O          O       0.12241   0.80925   0.14197  -0.5644010000
O          O       0.42048   0.90950   0.00837  -0.5804490000
O          O       0.37939   0.55841   0.05644  -0.5699980000
O          O       0.37281   0.87759   0.30791  -1.0046540000
O          O       0.33014   0.59042   0.02488  -0.6019160000
O          O       0.37284   0.55871   0.30873  -0.5639600000
O          O       0.09055   0.67020   0.09157  -0.5801260000
O          O       0.44164   0.62997   0.13980  -0.5700630000
O          O       0.12231   0.62231   0.05794  -1.0075690000
O          O       0.40972   0.57994   0.10836  -0.6007170000
O          O       0.44125   0.62227   0.05889  -0.5646320000
O          O       0.34109   0.92040   0.25836  -0.5798860000
O          O       0.19185   0.87950   0.30628  -0.5656190000
O          O       0.37291   0.87267   0.22473  -1.0037120000
O          O       0.16014   0.83018   0.27487  -0.6008020000
O          O       0.19069   0.87300   0.22540  -0.5634340000
O          O       0.15890   0.57961   0.25836  -0.5801660000
O          O       0.30815   0.62050   0.30628  -0.5657040000
O          O       0.12709   0.62733   0.22473  -1.0037310000
O          O       0.33986   0.66983   0.27487  -0.6007680000
O          O       0.30931   0.62700   0.22540  -0.5632640000
O          O       0.40945   0.82980   0.09156  -0.5805050000
O          O       0.05836   0.87003   0.13980  -0.5700330000
O          O       0.37768   0.87768   0.05794  -1.0076740000
O          O       0.09028   0.92005   0.10836  -0.6008710000
O          O       0.05874   0.87774   0.05888  -0.5647040000
O          O       0.13956   0.50000   0.27945  -0.0667180000
O          O       0.38917   0.74999   0.11263  -0.0693820000
O          O       0.11083   0.74999   0.11263  -0.0695240000
O          O       0.36044   0.50000   0.27945  -0.0667700000
O          O       0.00000   0.88914   0.02918  -0.0631210000
O          O       0.25000   0.86023   0.19736  -0.0660770000
O          O       0.00000   0.61086   0.02918  -0.0632130000
O          O       0.25000   0.63977   0.19736  -0.0658120000
O          O       0.35717   0.75000   0.25217  -0.0636220000
O          O       0.10799   0.50000   0.08549  -0.0618830000
O          O       0.39200   0.50000   0.08549  -0.0617380000
O          O       0.14284   0.75000   0.25217  -0.0634730000
O          O       0.25000   0.60794   0.00225  -0.0651900000
O          O       0.00000   0.64279   0.16877  -0.0636450000
O          O       0.25000   0.89206   0.00225  -0.0651260000
O          O       0.00000   0.85721   0.16877  -0.0635390000
C          C       0.10368   0.55705   0.08923   0.5884530000
C          C       0.14467   0.55696   0.27647   0.5912540000
C          C       0.15000   0.52581   0.25794   0.0688290000
C          C       0.34703   0.77585   0.27399   0.0690900000
C          C       0.08265   0.51667   0.14358  -0.1695040000
C          C       0.16645   0.98334   0.22265  -0.1706500000
C          C       0.35296   0.80705   0.25574   0.5847350000
C          C       0.39507   0.80722   0.10974   0.5895420000
C          C       0.40026   0.77585   0.09156   0.0701680000
C          C       0.09817   0.52582   0.10757   0.0673360000
C          C       0.33098   0.76668   0.30958  -0.1711000000
C          C       0.41752   0.73333   0.05699  -0.1715730000
C          C       0.14704   0.69295   0.25574   0.5847840000
C          C       0.10493   0.69278   0.10974   0.5893440000
C          C       0.09974   0.72414   0.09155   0.0703160000
C          C       0.40182   0.97417   0.10757   0.0674690000
C          C       0.16901   0.73333   0.30958  -0.1709430000
C          C       0.08248   0.76666   0.05700  -0.1714340000
C          C       0.39632   0.94295   0.08923   0.5886500000
C          C       0.35533   0.94305   0.27647   0.5910980000
C          C       0.35000   0.97419   0.25794   0.0687700000
C          C       0.15296   0.72415   0.27399   0.0690390000
C          C       0.41735   0.98333   0.14358  -0.1703490000
C          C       0.33355   0.51667   0.22265  -0.1705010000
C          C       0.44293   0.85301   0.17250   0.5887240000
C          C       0.44303   0.89505   0.02646   0.5905550000
C          C       0.47420   0.89995   0.00785   0.0660910000
C          C       0.22415   0.59797   0.02422   0.0704290000
C          C       0.48333   0.83127   0.22638  -0.1701250000
C          C       0.01666   0.91673   0.30618  -0.1699910000
C          C       0.19295   0.60363   0.00582   0.5853220000
C          C       0.19276   0.64474   0.19343   0.5872860000
C          C       0.22417   0.65035   0.17576   0.0696560000
C          C       0.47416   0.84718   0.19067   0.0688060000
C          C       0.23333   0.58220   0.06003  -0.1714930000
C          C       0.26666   0.66701   0.14069  -0.1712890000
C          C       0.30706   0.89637   0.00582   0.5852150000
C          C       0.30724   0.85527   0.19343   0.5873230000
C          C       0.27583   0.84966   0.17576   0.0696690000
C          C       0.02584   0.65282   0.19067   0.0689370000
C          C       0.26667   0.91780   0.06003  -0.1714880000
C          C       0.23334   0.83299   0.14069  -0.1712080000
C          C       0.05707   0.64699   0.17250   0.5887220000
C          C       0.05697   0.60495   0.02646   0.5903750000
C          C       0.02579   0.60005   0.00785   0.0662690000
C          C       0.27585   0.90204   0.02421   0.0703250000
C          C       0.01667   0.66873   0.22638  -0.1703180000
C          C       0.48334   0.58327   0.30618  -0.1700230000
C          C       0.10368   0.94295   0.08923   0.5886000000
C          C       0.14467   0.94305   0.27647   0.5909880000
C          C       0.15000   0.97419   0.25794   0.0687060000
C          C       0.34703   0.72415   0.27399   0.0690780000
C          C       0.08265   0.98333   0.14358  -0.1702660000
C          C       0.16645   0.51667   0.22266  -0.1705970000
C          C       0.35296   0.69295   0.25574   0.5848170000
C          C       0.39507   0.69278   0.10974   0.5890470000
C          C       0.40026   0.72414   0.09155   0.0703530000
C          C       0.09818   0.97417   0.10757   0.0674130000
C          C       0.33098   0.73333   0.30958  -0.1707800000
C          C       0.41752   0.76666   0.05699  -0.1717200000
C          C       0.14704   0.80705   0.25574   0.5845790000
C          C       0.10493   0.80722   0.10974   0.5896170000
C          C       0.09974   0.77585   0.09156   0.0699380000
C          C       0.40182   0.52582   0.10757   0.0673890000
C          C       0.16901   0.76668   0.30958  -0.1711100000
C          C       0.08248   0.73333   0.05699  -0.1716070000
C          C       0.39632   0.55705   0.08923   0.5882200000
C          C       0.35533   0.55696   0.27647   0.5910400000
C          C       0.35000   0.52581   0.25794   0.0688920000
C          C       0.15296   0.77585   0.27399   0.0691010000
C          C       0.41735   0.51667   0.14358  -0.1695650000
C          C       0.33355   0.98334   0.22265  -0.1707200000
C          C       0.44293   0.64699   0.17250   0.5887410000
C          C       0.44303   0.60495   0.02646   0.5903680000
C          C       0.47420   0.60005   0.00785   0.0663060000
C          C       0.22416   0.90204   0.02421   0.0704100000
C          C       0.48333   0.66873   0.22638  -0.1704360000
C          C       0.01666   0.58327   0.30618  -0.1701110000
C          C       0.19295   0.89637   0.00582   0.5849970000
C          C       0.19276   0.85527   0.19343   0.5873060000
C          C       0.22417   0.84966   0.17576   0.0698030000
C          C       0.47416   0.65282   0.19067   0.0690230000
C          C       0.23333   0.91780   0.06003  -0.1714000000
C          C       0.26666   0.83299   0.14069  -0.1712970000
C          C       0.30705   0.60363   0.00582   0.5854910000
C          C       0.30724   0.64474   0.19343   0.5873250000
C          C       0.27583   0.65035   0.17576   0.0695050000
C          C       0.02583   0.84718   0.19067   0.0687970000
C          C       0.26667   0.58220   0.06003  -0.1714960000
C          C       0.23335   0.66701   0.14069  -0.1711070000
C          C       0.05707   0.85301   0.17250   0.5889460000
C          C       0.05697   0.89505   0.02646   0.5906400000
C          C       0.02579   0.89995   0.00785   0.0660680000
C          C       0.27585   0.59797   0.02421   0.0701740000
C          C       0.01667   0.83127   0.22638  -0.1704650000
C          C       0.48334   0.91673   0.30618  -0.1699980000
H          H       0.14265   0.62503   0.07139   0.4247420000
H          H       0.28257   0.67802   0.11864   0.1586190000
H          H       0.07241   0.96746   0.16634   0.1572880000
H          H       0.39318   0.87508   0.23845   0.4241610000
H          H       0.03257   0.92795   0.28432   0.1581530000
H          H       0.32039   0.71747   0.33207   0.1578140000
H          H       0.10682   0.62493   0.23846   0.4242690000
H          H       0.46743   0.57204   0.28433   0.1581950000
H          H       0.17960   0.78253   0.33207   0.1579290000
H          H       0.35735   0.87496   0.07137   0.4249070000
H          H       0.21744   0.82198   0.11864   0.1587510000
H          H       0.42759   0.53253   0.16634   0.1570380000
H          H       0.37516   0.89310   0.15499   0.4264670000
H          H       0.32261   0.53256   0.20051   0.1580760000
H          H       0.03252   0.82079   0.24896   0.1571080000
H          H       0.12460   0.64268   0.32162   0.4243670000
H          H       0.07095   0.78256   0.03539   0.1586790000
H          H       0.28253   0.57178   0.08267   0.1579580000
H          H       0.37540   0.85733   0.32161   0.4244400000
H          H       0.42905   0.71744   0.03539   0.1587280000
H          H       0.21748   0.92822   0.08267   0.1578080000
H          H       0.12484   0.60690   0.15499   0.4263680000
H          H       0.17739   0.96744   0.20051   0.1580800000
H          H       0.46747   0.67921   0.24896   0.1573210000
H          H       0.14265   0.87496   0.07138   0.4246620000
H          H       0.28257   0.82198   0.11864   0.1586390000
H          H       0.07241   0.53253   0.16634   0.1570300000
H          H       0.39318   0.62493   0.23846   0.4241100000
H          H       0.03257   0.57204   0.28433   0.1581550000
H          H       0.32040   0.78253   0.33207   0.1579430000
H          H       0.10681   0.87509   0.23845   0.4242960000
H          H       0.46743   0.92795   0.28432   0.1581940000
H          H       0.17960   0.71747   0.33207   0.1578380000
H          H       0.35735   0.62504   0.07138   0.4248730000
H          H       0.21744   0.67802   0.11864   0.1586980000
H          H       0.42759   0.96746   0.16633   0.1572340000
H          H       0.37515   0.60690   0.15498   0.4264130000
H          H       0.32261   0.96744   0.20051   0.1581130000
H          H       0.03252   0.67921   0.24896   0.1570130000
H          H       0.12460   0.85733   0.32161   0.4243760000
H          H       0.07095   0.71744   0.03539   0.1587740000
H          H       0.28253   0.92822   0.08267   0.1578230000
H          H       0.37540   0.64268   0.32161   0.4243430000
H          H       0.42905   0.78256   0.03539   0.1587460000
H          H       0.21748   0.57178   0.08267   0.1578820000
H          H       0.12484   0.89310   0.15499   0.4263700000
H          H       0.17739   0.53256   0.20051   0.1580070000
H          H       0.46747   0.82079   0.24896   0.1572380000
Al         Al      0.62442   0.59123   0.01604   1.6720740000
Al         Al      0.87466   0.84149   0.18283   1.6692670000
Al         Al      0.62534   0.65851   0.18283   1.6692970000
Al         Al      0.87558   0.90877   0.01603   1.6720180000
Al         Al      0.90876   0.87467   0.09946   1.6758550000
Al         Al      0.65844   0.62444   0.26615   1.6656760000
Al         Al      0.84156   0.87556   0.26615   1.6657720000
Al         Al      0.59124   0.62533   0.09946   1.6754180000
Al         Al      0.62442   0.90877   0.01603   1.6721170000
Al         Al      0.87466   0.65851   0.18283   1.6692060000
Al         Al      0.62534   0.84149   0.18283   1.6695770000
Al         Al      0.87558   0.59123   0.01604   1.6719530000
Al         Al      0.90876   0.62533   0.09946   1.6754570000
Al         Al      0.65844   0.87556   0.26615   1.6657540000
Al         Al      0.84156   0.62444   0.26615   1.6656680000
Al         Al      0.59124   0.87467   0.09946   1.6756630000
O          O       0.57951   0.90950   0.00837  -0.5805920000
O          O       0.62061   0.55841   0.05644  -0.5702340000
O          O       0.62720   0.87759   0.30791  -1.0044880000
O          O       0.66987   0.59042   0.02488  -0.6018870000
O          O       0.62716   0.55871   0.30873  -0.5639920000
O          O       0.82986   0.65883   0.17497  -0.5785950000
O          O       0.86990   0.80810   0.22293  -0.5661270000
O          O       0.87775   0.62720   0.14143  -1.0085000000
O          O       0.91995   0.83974   0.19167  -0.6009590000
O          O       0.87759   0.80925   0.14197  -0.5641210000
O          O       0.67014   0.84117   0.17497  -0.5785270000
O          O       0.63010   0.69190   0.22293  -0.5660360000
O          O       0.62225   0.87280   0.14143  -1.0087250000
O          O       0.58005   0.66027   0.19167  -0.6010700000
O          O       0.62241   0.69076   0.14197  -0.5644120000
O          O       0.92048   0.59050   0.00837  -0.5804130000
O          O       0.87939   0.94159   0.05643  -0.5700580000
O          O       0.87280   0.62242   0.30791  -1.0045190000
O          O       0.83013   0.90957   0.02488  -0.6017790000
O          O       0.87284   0.94129   0.30873  -0.5641740000
O          O       0.59055   0.82980   0.09156  -0.5803330000
O          O       0.94163   0.87003   0.13980  -0.5701580000
O          O       0.62232   0.87768   0.05794  -1.0074630000
O          O       0.90972   0.92005   0.10836  -0.6010150000
O          O       0.94125   0.87774   0.05888  -0.5647880000
O          O       0.84109   0.57961   0.25836  -0.5800050000
O          O       0.69185   0.62050   0.30628  -0.5655990000
O          O       0.87292   0.62733   0.22473  -1.0036240000
O          O       0.66014   0.66983   0.27487  -0.6008560000
O          O       0.69069   0.62700   0.22540  -0.5633770000
O          O       0.65890   0.92040   0.25836  -0.5799990000
O          O       0.80815   0.87950   0.30628  -0.5655550000
O          O       0.62709   0.87267   0.22473  -1.0038420000
O          O       0.83986   0.83018   0.27487  -0.6007790000
O          O       0.80931   0.87300   0.22540  -0.5633100000
O          O       0.90945   0.67019   0.09157  -0.5802210000
O          O       0.55836   0.62998   0.13980  -0.5699250000
O          O       0.87769   0.62231   0.05794  -1.0076240000
O          O       0.59028   0.57994   0.10836  -0.6006930000
O          O       0.55875   0.62227   0.05889  -0.5645070000
O          O       0.57952   0.59050   0.00837  -0.5805050000
O          O       0.62060   0.94159   0.05643  -0.5701460000
O          O       0.62720   0.62242   0.30791  -1.0044700000
O          O       0.66986   0.90957   0.02488  -0.6017120000
O          O       0.62716   0.94129   0.30873  -0.5638610000
O          O       0.82986   0.84117   0.17497  -0.5785590000
O          O       0.86990   0.69190   0.22293  -0.5662120000
O          O       0.87775   0.87280   0.14142  -1.0087100000
O          O       0.91995   0.66026   0.19167  -0.6009550000
O          O       0.87759   0.69075   0.14197  -0.5640870000
O          O       0.67014   0.65883   0.17497  -0.5785300000
O          O       0.63010   0.80810   0.22293  -0.5659510000
O          O       0.62225   0.62720   0.14143  -1.0085080000
O          O       0.58005   0.83974   0.19167  -0.6011180000
O          O       0.62241   0.80925   0.14197  -0.5644010000
O          O       0.92048   0.90950   0.00837  -0.5804490000
O          O       0.87940   0.55841   0.05644  -0.5699980000
O          O       0.87281   0.87759   0.30791  -1.0046540000
O          O       0.83014   0.59042   0.02488  -0.6019160000
O          O       0.87284   0.55871   0.30873  -0.5639600000
O          O       0.59055   0.67020   0.09157  -0.5801260000
O          O       0.94164   0.62997   0.13980  -0.5700630000
O          O       0.62232   0.62231   0.05794  -1.0075690000
O          O       0.90972   0.57994   0.10836  -0.6007170000
O          O       0.94125   0.62227   0.05889  -0.5646320000
O          O       0.84110   0.92040   0.25836  -0.5798860000
O          O       0.69185   0.87950   0.30628  -0.5656190000
O          O       0.87292   0.87267   0.22473  -1.0037120000
O          O       0.66014   0.83018   0.27487  -0.6008020000
O          O       0.69069   0.87300   0.22540  -0.5634340000
O          O       0.65890   0.57961   0.25836  -0.5801660000
O          O       0.80815   0.62050   0.30628  -0.5657040000
O          O       0.62709   0.62733   0.22473  -1.0037310000
O          O       0.83986   0.66983   0.27487  -0.6007680000
O          O       0.80931   0.62700   0.22540  -0.5632640000
O          O       0.90945   0.82980   0.09156  -0.5805050000
O          O       0.55836   0.87003   0.13980  -0.5700330000
O          O       0.87769   0.87768   0.05794  -1.0076740000
O          O       0.59028   0.92005   0.10836  -0.6008710000
O          O       0.55875   0.87774   0.05888  -0.5647040000
O          O       0.63956   0.50000   0.27945  -0.0667180000
O          O       0.88917   0.74999   0.11263  -0.0693820000
O          O       0.61083   0.74999   0.11263  -0.0695240000
O          O       0.86044   0.50000   0.27945  -0.0667700000
O          O       0.50000   0.88914   0.02918  -0.0631210000
O          O       0.75000   0.86023   0.19736  -0.0660770000
O          O       0.50000   0.61086   0.02918  -0.0632130000
O          O       0.75000   0.63977   0.19736  -0.0658120000
O          O       0.85717   0.75000   0.25217  -0.0636220000
O          O       0.60800   0.50000   0.08549  -0.0618830000
O          O       0.89201   0.50000   0.08549  -0.0617380000
O          O       0.64284   0.75000   0.25217  -0.0634730000
O          O       0.75000   0.60794   0.00225  -0.0651900000
O          O       0.50000   0.64279   0.16877  -0.0636450000
O          O       0.75000   0.89206   0.00225  -0.0651260000
O          O       0.50000   0.85721   0.16877  -0.0635390000
C          C       0.60368   0.55705   0.08923   0.5884530000
C          C       0.64467   0.55696   0.27647   0.5912540000
C          C       0.65000   0.52581   0.25794   0.0688290000
C          C       0.84703   0.77585   0.27399   0.0690900000
C          C       0.58265   0.51667   0.14358  -0.1695040000
C          C       0.66645   0.98334   0.22265  -0.1706500000
C          C       0.85296   0.80705   0.25574   0.5847350000
C          C       0.89508   0.80722   0.10974   0.5895420000
C          C       0.90026   0.77585   0.09156   0.0701680000
C          C       0.59818   0.52582   0.10757   0.0673360000
C          C       0.83098   0.76668   0.30958  -0.1711000000
C          C       0.91752   0.73333   0.05699  -0.1715730000
C          C       0.64704   0.69295   0.25574   0.5847840000
C          C       0.60493   0.69278   0.10974   0.5893440000
C          C       0.59974   0.72414   0.09155   0.0703160000
C          C       0.90182   0.97417   0.10757   0.0674690000
C          C       0.66902   0.73333   0.30958  -0.1709430000
C          C       0.58248   0.76666   0.05700  -0.1714340000
C          C       0.89632   0.94295   0.08923   0.5886500000
C          C       0.85532   0.94305   0.27647   0.5910980000
C          C       0.85000   0.97419   0.25794   0.0687700000
C          C       0.65297   0.72415   0.27399   0.0690390000
C          C       0.91735   0.98333   0.14358  -0.1703490000
C          C       0.83355   0.51667   0.22265  -0.1705010000
C          C       0.94294   0.85301   0.17250   0.5887240000
C          C       0.94303   0.89505   0.02646   0.5905550000
C          C       0.97420   0.89995   0.00785   0.0660910000
C          C       0.72415   0.59797   0.02422   0.0704290000
C          C       0.98333   0.83127   0.22638  -0.1701250000
C          C       0.51666   0.91673   0.30618  -0.1699910000
C          C       0.69295   0.60363   0.00582   0.5853220000
C          C       0.69276   0.64474   0.19343   0.5872860000
C          C       0.72417   0.65035   0.17576   0.0696560000
C          C       0.97417   0.84718   0.19067   0.0688060000
C          C       0.73333   0.58220   0.06003  -0.1714930000
C          C       0.76666   0.66701   0.14069  -0.1712890000
C          C       0.80706   0.89637   0.00582   0.5852150000
C          C       0.80724   0.85527   0.19343   0.5873230000
C          C       0.77583   0.84966   0.17576   0.0696690000
C          C       0.52584   0.65282   0.19067   0.0689370000
C          C       0.76667   0.91780   0.06003  -0.1714880000
C          C       0.73335   0.83299   0.14069  -0.1712080000
C          C       0.55707   0.64699   0.17250   0.5887220000
C          C       0.55697   0.60495   0.02646   0.5903750000
C          C       0.52580   0.60005   0.00785   0.0662690000
C          C       0.77585   0.90204   0.02421   0.0703250000
C          C       0.51667   0.66873   0.22638  -0.1703180000
C          C       0.98334   0.58327   0.30618  -0.1700230000
C          C       0.60368   0.94295   0.08923   0.5886000000
C          C       0.64467   0.94305   0.27647   0.5909880000
C          C       0.65000   0.97419   0.25794   0.0687060000
C          C       0.84703   0.72415   0.27399   0.0690780000
C          C       0.58265   0.98333   0.14358  -0.1702660000
C          C       0.66645   0.51667   0.22266  -0.1705970000
C          C       0.85296   0.69295   0.25574   0.5848170000
C          C       0.89508   0.69278   0.10974   0.5890470000
C          C       0.90026   0.72414   0.09155   0.0703530000
C          C       0.59818   0.97417   0.10757   0.0674130000
C          C       0.83098   0.73333   0.30958  -0.1707800000
C          C       0.91752   0.76666   0.05699  -0.1717200000
C          C       0.64704   0.80705   0.25574   0.5845790000
C          C       0.60493   0.80722   0.10974   0.5896170000
C          C       0.59974   0.77585   0.09156   0.0699380000
C          C       0.90182   0.52582   0.10757   0.0673890000
C          C       0.66902   0.76668   0.30958  -0.1711100000
C          C       0.58248   0.73333   0.05699  -0.1716070000
C          C       0.89632   0.55705   0.08923   0.5882200000
C          C       0.85533   0.55696   0.27647   0.5910400000
C          C       0.85000   0.52581   0.25794   0.0688920000
C          C       0.65297   0.77585   0.27399   0.0691010000
C          C       0.91735   0.51667   0.14358  -0.1695650000
C          C       0.83355   0.98334   0.22265  -0.1707200000
C          C       0.94294   0.64699   0.17250   0.5887410000
C          C       0.94303   0.60495   0.02646   0.5903680000
C          C       0.97420   0.60005   0.00785   0.0663060000
C          C       0.72415   0.90204   0.02421   0.0704100000
C          C       0.98333   0.66873   0.22638  -0.1704360000
C          C       0.51666   0.58327   0.30618  -0.1701110000
C          C       0.69295   0.89637   0.00582   0.5849970000
C          C       0.69276   0.85527   0.19343   0.5873060000
C          C       0.72417   0.84966   0.17576   0.0698030000
C          C       0.97417   0.65282   0.19067   0.0690230000
C          C       0.73333   0.91780   0.06003  -0.1714000000
C          C       0.76666   0.83299   0.14069  -0.1712970000
C          C       0.80705   0.60363   0.00582   0.5854910000
C          C       0.80724   0.64474   0.19343   0.5873250000
C          C       0.77583   0.65035   0.17576   0.0695050000
C          C       0.52583   0.84718   0.19067   0.0687970000
C          C       0.76667   0.58220   0.06003  -0.1714960000
C          C       0.73335   0.66701   0.14069  -0.1711070000
C          C       0.55707   0.85301   0.17250   0.5889460000
C          C       0.55697   0.89505   0.02646   0.5906400000
C          C       0.52580   0.89995   0.00785   0.0660680000
C          C       0.77585   0.59797   0.02421   0.0701740000
C          C       0.51667   0.83127   0.22638  -0.1704650000
C          C       0.98334   0.91673   0.30618  -0.1699980000
H          H       0.64265   0.62503   0.07139   0.4247420000
H          H       0.78257   0.67802   0.11864   0.1586190000
H          H       0.57241   0.96746   0.16634   0.1572880000
H          H       0.89318   0.87508   0.23845   0.4241610000
H          H       0.53257   0.92795   0.28432   0.1581530000
H          H       0.82039   0.71747   0.33207   0.1578140000
H          H       0.60682   0.62493   0.23846   0.4242690000
H          H       0.96743   0.57204   0.28433   0.1581950000
H          H       0.67960   0.78253   0.33207   0.1579290000
H          H       0.85735   0.87496   0.07137   0.4249070000
H          H       0.71744   0.82198   0.11864   0.1587510000
H          H       0.92759   0.53253   0.16634   0.1570380000
H          H       0.87516   0.89310   0.15499   0.4264670000
H          H       0.82262   0.53256   0.20051   0.1580760000
H          H       0.53252   0.82079   0.24896   0.1571080000
H          H       0.62461   0.64268   0.32162   0.4243670000
H          H       0.57095   0.78256   0.03539   0.1586790000
H          H       0.78253   0.57178   0.08267   0.1579580000
H          H       0.87540   0.85733   0.32161   0.4244400000
H          H       0.92905   0.71744   0.03539   0.1587280000
H          H       0.71748   0.92822   0.08267   0.1578080000
H          H       0.62485   0.60690   0.15499   0.4263680000
H          H       0.67739   0.96744   0.20051   0.1580800000
H          H       0.96747   0.67921   0.24896   0.1573210000
H          H       0.64265   0.87496   0.07138   0.4246620000
H          H       0.78257   0.82198   0.11864   0.1586390000
H          H       0.57241   0.53253   0.16634   0.1570300000
H          H       0.89318   0.62493   0.23846   0.4241100000
H          H       0.53257   0.57204   0.28433   0.1581550000
H          H       0.82040   0.78253   0.33207   0.1579430000
H          H       0.60682   0.87509   0.23845   0.4242960000
H          H       0.96743   0.92795   0.28432   0.1581940000
H          H       0.67961   0.71747   0.33207   0.1578380000
H          H       0.85735   0.62504   0.07138   0.4248730000
H          H       0.71744   0.67802   0.11864   0.1586980000
H          H       0.92759   0.96746   0.16633   0.1572340000
H          H       0.87515   0.60690   0.15498   0.4264130000
H          H       0.82261   0.96744   0.20051   0.1581130000
H          H       0.53253   0.67921   0.24896   0.1570130000
H          H       0.62461   0.85733   0.32161   0.4243760000
H          H       0.57095   0.71744   0.03539   0.1587740000
H          H       0.78253   0.92822   0.08267   0.1578230000
H          H       0.87540   0.64268   0.32161   0.4243430000
H          H       0.92905   0.78256   0.03539   0.1587460000
H          H       0.71748   0.57178   0.08267   0.1578820000
H          H       0.62484   0.89310   0.15499   0.4263700000
H          H       0.67739   0.53256   0.20051   0.1580070000
H          H       0.96747   0.82079   0.24896   0.1572380000
Al         Al      0.12442   0.09123   0.34937   1.6720740000
Al         Al      0.37466   0.34149   0.51616   1.6692670000
Al         Al      0.12534   0.15851   0.51617   1.6692970000
Al         Al      0.37558   0.40877   0.34937   1.6720180000
Al         Al      0.40876   0.37467   0.43279   1.6758550000
Al         Al      0.15844   0.12444   0.59949   1.6656760000
Al         Al      0.34156   0.37556   0.59949   1.6657720000
Al         Al      0.09123   0.12533   0.43279   1.6754180000
Al         Al      0.12442   0.40876   0.34937   1.6721170000
Al         Al      0.37466   0.15851   0.51617   1.6692060000
Al         Al      0.12534   0.34149   0.51616   1.6695770000
Al         Al      0.37558   0.09123   0.34937   1.6719530000
Al         Al      0.40876   0.12533   0.43279   1.6754570000
Al         Al      0.15844   0.37556   0.59949   1.6657540000
Al         Al      0.34156   0.12444   0.59949   1.6656680000
Al         Al      0.09123   0.37467   0.43279   1.6756630000
O          O       0.07952   0.40950   0.34170  -0.5805920000
O          O       0.12061   0.05841   0.38977  -0.5702340000
O          O       0.12720   0.37758   0.64124  -1.0044880000
O          O       0.16986   0.09043   0.35822  -0.6018870000
O          O       0.12716   0.05871   0.64206  -0.5639920000
O          O       0.32986   0.15883   0.50831  -0.5785950000
O          O       0.36990   0.30810   0.55626  -0.5661270000
O          O       0.37775   0.12720   0.47476  -1.0085000000
O          O       0.41996   0.33974   0.52500  -0.6009590000
O          O       0.37759   0.30924   0.47530  -0.5641210000
O          O       0.17014   0.34117   0.50831  -0.5785270000
O          O       0.13010   0.19190   0.55627  -0.5660360000
O          O       0.12225   0.37279   0.47476  -1.0087250000
O          O       0.08004   0.16026   0.52500  -0.6010700000
O          O       0.12241   0.19076   0.47530  -0.5644120000
O          O       0.42048   0.09050   0.34170  -0.5804130000
O          O       0.37939   0.44159   0.38977  -0.5700580000
O          O       0.37280   0.12242   0.64124  -1.0045190000
O          O       0.33014   0.40957   0.35821  -0.6017790000
O          O       0.37284   0.44129   0.64206  -0.5641740000
O          O       0.09055   0.32980   0.42490  -0.5803330000
O          O       0.44163   0.37002   0.47313  -0.5701580000
O          O       0.12232   0.37768   0.39127  -1.0074630000
O          O       0.40972   0.42005   0.44169  -0.6010150000
O          O       0.44126   0.37774   0.39222  -0.5647880000
O          O       0.34109   0.07961   0.59170  -0.5800050000
O          O       0.19185   0.12050   0.63962  -0.5655990000
O          O       0.37291   0.12733   0.55806  -1.0036240000
O          O       0.16014   0.16983   0.60820  -0.6008560000
O          O       0.19068   0.12700   0.55874  -0.5633770000
O          O       0.15891   0.42040   0.59169  -0.5799990000
O          O       0.30815   0.37950   0.63961  -0.5655550000
O          O       0.12709   0.37267   0.55806  -1.0038420000
O          O       0.33986   0.33017   0.60820  -0.6007790000
O          O       0.30931   0.37300   0.55874  -0.5633100000
O          O       0.40945   0.17020   0.42490  -0.5802210000
O          O       0.05836   0.12998   0.47313  -0.5699250000
O          O       0.37768   0.12232   0.39128  -1.0076240000
O          O       0.09028   0.07994   0.44169  -0.6006930000
O          O       0.05874   0.12227   0.39222  -0.5645070000
O          O       0.07952   0.09050   0.34170  -0.5805050000
O          O       0.12061   0.44159   0.38977  -0.5701460000
O          O       0.12720   0.12242   0.64125  -1.0044700000
O          O       0.16986   0.40957   0.35821  -0.6017120000
O          O       0.12716   0.44129   0.64206  -0.5638610000
O          O       0.32986   0.34117   0.50831  -0.5785590000
O          O       0.36990   0.19190   0.55627  -0.5662120000
O          O       0.37775   0.37279   0.47476  -1.0087100000
O          O       0.41996   0.16026   0.52500  -0.6009550000
O          O       0.37759   0.19075   0.47530  -0.5640870000
O          O       0.17014   0.15883   0.50831  -0.5785300000
O          O       0.13010   0.30810   0.55626  -0.5659510000
O          O       0.12225   0.12720   0.47476  -1.0085080000
O          O       0.08005   0.33974   0.52500  -0.6011180000
O          O       0.12241   0.30924   0.47530  -0.5644010000
O          O       0.42048   0.40950   0.34170  -0.5804490000
O          O       0.37939   0.05841   0.38977  -0.5699980000
O          O       0.37280   0.37758   0.64124  -1.0046540000
O          O       0.33014   0.09043   0.35822  -0.6019160000
O          O       0.37284   0.05871   0.64206  -0.5639600000
O          O       0.09055   0.17020   0.42490  -0.5801260000
O          O       0.44164   0.12997   0.47313  -0.5700630000
O          O       0.12231   0.12232   0.39128  -1.0075690000
O          O       0.40972   0.07994   0.44169  -0.6007170000
O          O       0.44126   0.12227   0.39222  -0.5646320000
O          O       0.34110   0.42040   0.59169  -0.5798860000
O          O       0.19185   0.37950   0.63961  -0.5656190000
O          O       0.37292   0.37267   0.55806  -1.0037120000
O          O       0.16014   0.33017   0.60820  -0.6008020000
O          O       0.19068   0.37300   0.55874  -0.5634340000
O          O       0.15890   0.07961   0.59170  -0.5801660000
O          O       0.30815   0.12050   0.63962  -0.5657040000
O          O       0.12709   0.12733   0.55806  -1.0037310000
O          O       0.33986   0.16983   0.60820  -0.6007680000
O          O       0.30931   0.12700   0.55874  -0.5632640000
O          O       0.40945   0.32980   0.42490  -0.5805050000
O          O       0.05836   0.37002   0.47313  -0.5700330000
O          O       0.37768   0.37768   0.39127  -1.0076740000
O          O       0.09028   0.42005   0.44169  -0.6008710000
O          O       0.05874   0.37774   0.39222  -0.5647040000
O          O       0.13956   0.00000   0.61278  -0.0667180000
O          O       0.38917   0.24999   0.44596  -0.0693820000
O          O       0.11083   0.24999   0.44596  -0.0695240000
O          O       0.36044   0.00000   0.61278  -0.0667700000
O          O       0.00000   0.38914   0.36251  -0.0631210000
O          O       0.25000   0.36023   0.53069  -0.0660770000
O          O       0.00000   0.11086   0.36251  -0.0632130000
O          O       0.25000   0.13977   0.53069  -0.0658120000
O          O       0.35717   0.25000   0.58550  -0.0636220000
O          O       0.10800  -0.00001   0.41882  -0.0618830000
O          O       0.39201  -0.00001   0.41882  -0.0617380000
O          O       0.14284   0.25000   0.58550  -0.0634730000
O          O       0.25000   0.10794   0.33558  -0.0651900000
O          O      -0.00000   0.14279   0.50211  -0.0636450000
O          O       0.25000   0.39206   0.33558  -0.0651260000
O          O       0.00000   0.35721   0.50211  -0.0635390000
C          C       0.10368   0.05704   0.42256   0.5884530000
C          C       0.14467   0.05695   0.60981   0.5912540000
C          C       0.15000   0.02581   0.59128   0.0688290000
C          C       0.34703   0.27584   0.60732   0.0690900000
C          C       0.08265   0.01667   0.47691  -0.1695040000
C          C       0.16645   0.48334   0.55599  -0.1706500000
C          C       0.35296   0.30705   0.58907   0.5847350000
C          C       0.39508   0.30722   0.44308   0.5895420000
C          C       0.40026   0.27585   0.42489   0.0701680000
C          C       0.09817   0.02583   0.44091   0.0673360000
C          C       0.33098   0.26667   0.64291  -0.1711000000
C          C       0.41752   0.23333   0.39033  -0.1715730000
C          C       0.14704   0.19295   0.58907   0.5847840000
C          C       0.10493   0.19278   0.44308   0.5893440000
C          C       0.09974   0.22414   0.42489   0.0703160000
C          C       0.40182   0.47417   0.44091   0.0674690000
C          C       0.16901   0.23332   0.64292  -0.1709430000
C          C       0.08248   0.26666   0.39033  -0.1714340000
C          C       0.39632   0.44295   0.42256   0.5886500000
C          C       0.35533   0.44305   0.60980   0.5910980000
C          C       0.35000   0.47419   0.59127   0.0687700000
C          C       0.15297   0.22415   0.60732   0.0690390000
C          C       0.41735   0.48333   0.47691  -0.1703490000
C          C       0.33355   0.01667   0.55599  -0.1705010000
C          C       0.44294   0.35301   0.50583   0.5887240000
C          C       0.44304   0.39505   0.35979   0.5905550000
C          C       0.47421   0.39995   0.34118   0.0660910000
C          C       0.22415   0.09797   0.35755   0.0704290000
C          C       0.48333   0.33127   0.55971  -0.1701250000
C          C       0.01666   0.41673   0.63951  -0.1699910000
C          C       0.19295   0.10363   0.33916   0.5853220000
C          C       0.19276   0.14474   0.52676   0.5872860000
C          C       0.22417   0.15035   0.50909   0.0696560000
C          C       0.47417   0.34718   0.52400   0.0688060000
C          C       0.23333   0.08220   0.39337  -0.1714930000
C          C       0.26666   0.16701   0.47402  -0.1712890000
C          C       0.30706   0.39638   0.33915   0.5852150000
C          C       0.30724   0.35526   0.52676   0.5873230000
C          C       0.27583   0.34966   0.50909   0.0696690000
C          C       0.02584   0.15282   0.52400   0.0689370000
C          C       0.26668   0.41780   0.39336  -0.1714880000
C          C       0.23334   0.33298   0.47402  -0.1712080000
C          C       0.05707   0.14699   0.50583   0.5887220000
C          C       0.05697   0.10495   0.35979   0.5903750000
C          C       0.02579   0.10005   0.34118   0.0662690000
C          C       0.27585   0.40203   0.35755   0.0703250000
C          C       0.01667   0.16873   0.55972  -0.1703180000
C          C       0.48334   0.08327   0.63952  -0.1700230000
C          C       0.10368   0.44295   0.42256   0.5886000000
C          C       0.14467   0.44305   0.60981   0.5909880000
C          C       0.15000   0.47419   0.59128   0.0687060000
C          C       0.34703   0.22415   0.60732   0.0690780000
C          C       0.08265   0.48333   0.47691  -0.1702660000
C          C       0.16645   0.01667   0.55599  -0.1705970000
C          C       0.35296   0.19295   0.58907   0.5848170000
C          C       0.39508   0.19278   0.44308   0.5890470000
C          C       0.40026   0.22414   0.42489   0.0703530000
C          C       0.09818   0.47417   0.44091   0.0674130000
C          C       0.33098   0.23332   0.64292  -0.1707800000
C          C       0.41752   0.26666   0.39033  -0.1717200000
C          C       0.14704   0.30705   0.58907   0.5845790000
C          C       0.10493   0.30722   0.44308   0.5896170000
C          C       0.09974   0.27586   0.42489   0.0699380000
C          C       0.40183   0.02582   0.44091   0.0673890000
C          C       0.16901   0.26667   0.64292  -0.1711100000
C          C       0.08248   0.23333   0.39033  -0.1716070000
C          C       0.39632   0.05704   0.42256   0.5882200000
C          C       0.35532   0.05695   0.60981   0.5910400000
C          C       0.35000   0.02581   0.59128   0.0688920000
C          C       0.15296   0.27584   0.60732   0.0691010000
C          C       0.41735   0.01667   0.47691  -0.1695650000
C          C       0.33355   0.48334   0.55599  -0.1707200000
C          C       0.44294   0.14699   0.50583   0.5887410000
C          C       0.44304   0.10495   0.35979   0.5903680000
C          C       0.47421   0.10005   0.34118   0.0663060000
C          C       0.22415   0.40203   0.35755   0.0704100000
C          C       0.48333   0.16873   0.55972  -0.1704360000
C          C       0.01666   0.08327   0.63952  -0.1701110000
C          C       0.19295   0.39638   0.33915   0.5849970000
C          C       0.19276   0.35526   0.52676   0.5873060000
C          C       0.22417   0.34966   0.50909   0.0698030000
C          C       0.47417   0.15282   0.52400   0.0690230000
C          C       0.23333   0.41780   0.39336  -0.1714000000
C          C       0.26666   0.33299   0.47402  -0.1712970000
C          C       0.30705   0.10363   0.33916   0.5854910000
C          C       0.30724   0.14474   0.52676   0.5873250000
C          C       0.27583   0.15035   0.50909   0.0695050000
C          C       0.02583   0.34718   0.52400   0.0687970000
C          C       0.26667   0.08220   0.39337  -0.1714960000
C          C       0.23334   0.16701   0.47402  -0.1711070000
C          C       0.05707   0.35301   0.50583   0.5889460000
C          C       0.05697   0.39505   0.35979   0.5906400000
C          C       0.02579   0.39995   0.34118   0.0660680000
C          C       0.27585   0.09797   0.35755   0.0701740000
C          C       0.01667   0.33127   0.55972  -0.1704650000
C          C       0.48334   0.41673   0.63951  -0.1699980000
H          H       0.14265   0.12503   0.40472   0.4247420000
H          H       0.28257   0.17802   0.45197   0.1586190000
H          H       0.07241   0.46746   0.49967   0.1572880000
H          H       0.39318   0.37508   0.57178   0.4241610000
H          H       0.03257   0.42795   0.61766   0.1581530000
H          H       0.32039   0.21747   0.66541   0.1578140000
H          H       0.10682   0.12493   0.57179   0.4242690000
H          H       0.46743   0.07204   0.61766   0.1581950000
H          H       0.17960   0.28253   0.66540   0.1579290000
H          H       0.35735   0.37495   0.40471   0.4249070000
H          H       0.21743   0.32198   0.45197   0.1587510000
H          H       0.42759   0.03253   0.49967   0.1570380000
H          H       0.37516   0.39310   0.48832   0.4264670000
H          H       0.32261   0.03256   0.53384   0.1580760000
H          H       0.03252   0.32079   0.58229   0.1571080000
H          H       0.12460   0.14267   0.65495   0.4243670000
H          H       0.07095   0.28256   0.36873   0.1586790000
H          H       0.28253   0.07178   0.41600   0.1579580000
H          H       0.37539   0.35732   0.65494   0.4244400000
H          H       0.42905   0.21743   0.36872   0.1587280000
H          H       0.21748   0.42822   0.41600   0.1578080000
H          H       0.12484   0.10690   0.48832   0.4263680000
H          H       0.17739   0.46744   0.53384   0.1580800000
H          H       0.46747   0.17921   0.58229   0.1573210000
H          H       0.14265   0.37495   0.40471   0.4246620000
H          H       0.28257   0.32198   0.45197   0.1586390000
H          H       0.07241   0.03253   0.49967   0.1570300000
H          H       0.39318   0.12493   0.57179   0.4241100000
H          H       0.03257   0.07204   0.61766   0.1581550000
H          H       0.32040   0.28253   0.66540   0.1579430000
H          H       0.10682   0.37509   0.57178   0.4242960000
H          H       0.46743   0.42795   0.61765   0.1581940000
H          H       0.17961   0.21747   0.66541   0.1578380000
H          H       0.35735   0.12504   0.40471   0.4248730000
H          H       0.21743   0.17802   0.45197   0.1586980000
H          H       0.42759   0.46746   0.49967   0.1572340000
H          H       0.37515   0.10690   0.48832   0.4264130000
H          H       0.32261   0.46744   0.53384   0.1581130000
H          H       0.03252   0.17921   0.58229   0.1570130000
H          H       0.12461   0.35732   0.65495   0.4243760000
H          H       0.07095   0.21743   0.36872   0.1587740000
H          H       0.28253   0.42822   0.41600   0.1578230000
H          H       0.37540   0.14267   0.65495   0.4243430000
H          H       0.42905   0.28256   0.36873   0.1587460000
H          H       0.21748   0.07178   0.41600   0.1578820000
H          H       0.12484   0.39310   0.48832   0.4263700000
H          H       0.17739   0.03256   0.53384   0.1580070000
H          H       0.46747   0.32079   0.58229   0.1572380000
Al         Al      0.62442   0.09123   0.34937   1.6720740000
Al         Al      0.87466   0.34149   0.51616   1.6692670000
Al         Al      0.62534   0.15851   0.51617   1.6692970000
Al         Al      0.87558   0.40877   0.34937   1.6720180000
Al         Al      0.90876   0.37467   0.43279   1.6758550000
Al         Al      0.65844   0.12444   0.59949   1.6656760000
Al         Al      0.84156   0.37556   0.59949   1.6657720000
Al         Al      0.59124   0.12533   0.43279   1.6754180000
Al         Al      0.62442   0.40876   0.34937   1.6721170000
Al         Al      0.87466   0.15851   0.51617   1.6692060000
Al         Al      0.62534   0.34149   0.51616   1.6695770000
Al         Al      0.87558   0.09123   0.34937   1.6719530000
Al         Al      0.90876   0.12533   0.43279   1.6754570000
Al         Al      0.65844   0.37556   0.59949   1.6657540000
Al         Al      0.84156   0.12444   0.59949   1.6656680000
Al         Al      0.59124   0.37467   0.43279   1.6756630000
O          O       0.57952   0.40950   0.34170  -0.5805920000
O          O       0.62061   0.05841   0.38977  -0.5702340000
O          O       0.62720   0.37758   0.64124  -1.0044880000
O          O       0.66987   0.09043   0.35822  -0.6018870000
O          O       0.62716   0.05871   0.64206  -0.5639920000
O          O       0.82986   0.15883   0.50831  -0.5785950000
O          O       0.86990   0.30810   0.55626  -0.5661270000
O          O       0.87775   0.12720   0.47476  -1.0085000000
O          O       0.91995   0.33974   0.52500  -0.6009590000
O          O       0.87759   0.30924   0.47530  -0.5641210000
O          O       0.67014   0.34117   0.50831  -0.5785270000
O          O       0.63010   0.19190   0.55627  -0.5660360000
O          O       0.62225   0.37279   0.47476  -1.0087250000
O          O       0.58005   0.16026   0.52500  -0.6010700000
O          O       0.62241   0.19076   0.47530  -0.5644120000
O          O       0.92048   0.09050   0.34170  -0.5804130000
O          O       0.87940   0.44159   0.38977  -0.5700580000
O          O       0.87280   0.12242   0.64124  -1.0045190000
O          O       0.83014   0.40957   0.35821  -0.6017790000
O          O       0.87284   0.44129   0.64206  -0.5641740000
O          O       0.59055   0.32980   0.42490  -0.5803330000
O          O       0.94163   0.37002   0.47313  -0.5701580000
O          O       0.62232   0.37768   0.39127  -1.0074630000
O          O       0.90972   0.42005   0.44169  -0.6010150000
O          O       0.94125   0.37774   0.39222  -0.5647880000
O          O       0.84109   0.07961   0.59170  -0.5800050000
O          O       0.69185   0.12050   0.63962  -0.5655990000
O          O       0.87292   0.12733   0.55806  -1.0036240000
O          O       0.66014   0.16983   0.60820  -0.6008560000
O          O       0.69069   0.12700   0.55874  -0.5633770000
O          O       0.65891   0.42040   0.59169  -0.5799990000
O          O       0.80815   0.37950   0.63961  -0.5655550000
O          O       0.62709   0.37267   0.55806  -1.0038420000
O          O       0.83986   0.33017   0.60820  -0.6007790000
O          O       0.80931   0.37300   0.55874  -0.5633100000
O          O       0.90945   0.17020   0.42490  -0.5802210000
O          O       0.55836   0.12998   0.47313  -0.5699250000
O          O       0.87769   0.12232   0.39128  -1.0076240000
O          O       0.59028   0.07994   0.44169  -0.6006930000
O          O       0.55875   0.12227   0.39222  -0.5645070000
O          O       0.57952   0.09050   0.34170  -0.5805050000
O          O       0.62061   0.44159   0.38977  -0.5701460000
O          O       0.62720   0.12242   0.64125  -1.0044700000
O          O       0.66987   0.40957   0.35821  -0.6017120000
O          O       0.62716   0.44129   0.64206  -0.5638610000
O          O       0.82986   0.34117   0.50831  -0.5785590000
O          O       0.86990   0.19190   0.55627  -0.5662120000
O          O       0.87775   0.37279   0.47476  -1.0087100000
O          O       0.91995   0.16026   0.52500  -0.6009550000
O          O       0.87759   0.19075   0.47530  -0.5640870000
O          O       0.67014   0.15883   0.50831  -0.5785300000
O          O       0.63010   0.30810   0.55626  -0.5659510000
O          O       0.62225   0.12720   0.47476  -1.0085080000
O          O       0.58005   0.33974   0.52500  -0.6011180000
O          O       0.62241   0.30924   0.47530  -0.5644010000
O          O       0.92048   0.40950   0.34170  -0.5804490000
O          O       0.87940   0.05841   0.38977  -0.5699980000
O          O       0.87281   0.37758   0.64124  -1.0046540000
O          O       0.83014   0.09043   0.35822  -0.6019160000
O          O       0.87284   0.05871   0.64206  -0.5639600000
O          O       0.59055   0.17020   0.42490  -0.5801260000
O          O       0.94164   0.12997   0.47313  -0.5700630000
O          O       0.62232   0.12232   0.39128  -1.0075690000
O          O       0.90972   0.07994   0.44169  -0.6007170000
O          O       0.94125   0.12227   0.39222  -0.5646320000
O          O       0.84110   0.42040   0.59169  -0.5798860000
O          O       0.69185   0.37950   0.63961  -0.5656190000
O          O       0.87292   0.37267   0.55806  -1.0037120000
O          O       0.66014   0.33017   0.60820  -0.6008020000
O          O       0.69069   0.37300   0.55874  -0.5634340000
O          O       0.65890   0.07961   0.59170  -0.5801660000
O          O       0.80815   0.12050   0.63962  -0.5657040000
O          O       0.62709   0.12733   0.55806  -1.0037310000
O          O       0.83986   0.16983   0.60820  -0.6007680000
O          O       0.80931   0.12700   0.55874  -0.5632640000
O          O       0.90945   0.32980   0.42490  -0.5805050000
O          O       0.55836   0.37002   0.47313  -0.5700330000
O          O       0.87769   0.37768   0.39127  -1.0076740000
O          O       0.59028   0.42005   0.44169  -0.6008710000
O          O       0.55875   0.37774   0.39222  -0.5647040000
O          O       0.63956   0.00000   0.61278  -0.0667180000
O          O       0.88917   0.24999   0.44596  -0.0693820000
O          O       0.61083   0.24999   0.44596  -0.0695240000
O          O       0.86044   0.00000   0.61278  -0.0667700000
O          O       0.50000   0.38914   0.36251  -0.0631210000
O          O       0.75000   0.36023   0.53069  -0.0660770000
O          O       0.50000   0.11086   0.36251  -0.0632130000
O          O       0.75000   0.13977   0.53069  -0.0658120000
O          O       0.85717   0.25000   0.58550  -0.0636220000
O          O       0.60800  -0.00001   0.41882  -0.0618830000
O          O       0.89201  -0.00001   0.41882  -0.0617380000
O          O       0.64284   0.25000   0.58550  -0.0634730000
O          O       0.75000   0.10794   0.33558  -0.0651900000
O          O       0.50000   0.14279   0.50211  -0.0636450000
O          O       0.75000   0.39206   0.33558  -0.0651260000
O          O       0.50000   0.35721   0.50211  -0.0635390000
C          C       0.60368   0.05704   0.42256   0.5884530000
C          C       0.64467   0.05695   0.60981   0.5912540000
C          C       0.65000   0.02581   0.59128   0.0688290000
C          C       0.84703   0.27584   0.60732   0.0690900000
C          C       0.58265   0.01667   0.47691  -0.1695040000
C          C       0.66646   0.48334   0.55599  -0.1706500000
C          C       0.85296   0.30705   0.58907   0.5847350000
C          C       0.89508   0.30722   0.44308   0.5895420000
C          C       0.90026   0.27585   0.42489   0.0701680000
C          C       0.59818   0.02583   0.44091   0.0673360000
C          C       0.83098   0.26667   0.64291  -0.1711000000
C          C       0.91752   0.23333   0.39033  -0.1715730000
C          C       0.64704   0.19295   0.58907   0.5847840000
C          C       0.60493   0.19278   0.44308   0.5893440000
C          C       0.59974   0.22414   0.42489   0.0703160000
C          C       0.90182   0.47417   0.44091   0.0674690000
C          C       0.66902   0.23332   0.64292  -0.1709430000
C          C       0.58248   0.26666   0.39033  -0.1714340000
C          C       0.89632   0.44295   0.42256   0.5886500000
C          C       0.85533   0.44305   0.60980   0.5910980000
C          C       0.85000   0.47419   0.59127   0.0687700000
C          C       0.65297   0.22415   0.60732   0.0690390000
C          C       0.91735   0.48333   0.47691  -0.1703490000
C          C       0.83355   0.01667   0.55599  -0.1705010000
C          C       0.94294   0.35301   0.50583   0.5887240000
C          C       0.94303   0.39505   0.35979   0.5905550000
C          C       0.97420   0.39995   0.34118   0.0660910000
C          C       0.72415   0.09797   0.35755   0.0704290000
C          C       0.98333   0.33127   0.55971  -0.1701250000
C          C       0.51666   0.41673   0.63951  -0.1699910000
C          C       0.69295   0.10363   0.33916   0.5853220000
C          C       0.69276   0.14474   0.52676   0.5872860000
C          C       0.72417   0.15035   0.50909   0.0696560000
C          C       0.97417   0.34718   0.52400   0.0688060000
C          C       0.73333   0.08220   0.39337  -0.1714930000
C          C       0.76666   0.16701   0.47402  -0.1712890000
C          C       0.80706   0.39638   0.33915   0.5852150000
C          C       0.80724   0.35526   0.52676   0.5873230000
C          C       0.77583   0.34966   0.50909   0.0696690000
C          C       0.52584   0.15282   0.52400   0.0689370000
C          C       0.76668   0.41780   0.39336  -0.1714880000
C          C       0.73335   0.33298   0.47402  -0.1712080000
C          C       0.55707   0.14699   0.50583   0.5887220000
C          C       0.55697   0.10495   0.35979   0.5903750000
C          C       0.52580   0.10005   0.34118   0.0662690000
C          C       0.77585   0.40203   0.35755   0.0703250000
C          C       0.51667   0.16873   0.55972  -0.1703180000
C          C       0.98334   0.08327   0.63952  -0.1700230000
C          C       0.60368   0.44295   0.42256   0.5886000000
C          C       0.64468   0.44305   0.60981   0.5909880000
C          C       0.65000   0.47419   0.59128   0.0687060000
C          C       0.84703   0.22415   0.60732   0.0690780000
C          C       0.58265   0.48333   0.47691  -0.1702660000
C          C       0.66645   0.01667   0.55599  -0.1705970000
C          C       0.85296   0.19295   0.58907   0.5848170000
C          C       0.89508   0.19278   0.44308   0.5890470000
C          C       0.90026   0.22414   0.42489   0.0703530000
C          C       0.59818   0.47417   0.44091   0.0674130000
C          C       0.83098   0.23332   0.64292  -0.1707800000
C          C       0.91752   0.26666   0.39033  -0.1717200000
C          C       0.64704   0.30705   0.58907   0.5845790000
C          C       0.60493   0.30722   0.44308   0.5896170000
C          C       0.59974   0.27586   0.42489   0.0699380000
C          C       0.90182   0.02582   0.44091   0.0673890000
C          C       0.66902   0.26667   0.64292  -0.1711100000
C          C       0.58248   0.23333   0.39033  -0.1716070000
C          C       0.89632   0.05704   0.42256   0.5882200000
C          C       0.85533   0.05695   0.60981   0.5910400000
C          C       0.85000   0.02581   0.59128   0.0688920000
C          C       0.65297   0.27584   0.60732   0.0691010000
C          C       0.91735   0.01667   0.47691  -0.1695650000
C          C       0.83355   0.48334   0.55599  -0.1707200000
C          C       0.94294   0.14699   0.50583   0.5887410000
C          C       0.94303   0.10495   0.35979   0.5903680000
C          C       0.97420   0.10005   0.34118   0.0663060000
C          C       0.72415   0.40203   0.35755   0.0704100000
C          C       0.98333   0.16873   0.55972  -0.1704360000
C          C       0.51666   0.08327   0.63952  -0.1701110000
C          C       0.69295   0.39638   0.33915   0.5849970000
C          C       0.69276   0.35526   0.52676   0.5873060000
C          C       0.72417   0.34966   0.50909   0.0698030000
C          C       0.97417   0.15282   0.52400   0.0690230000
C          C       0.73333   0.41780   0.39336  -0.1714000000
C          C       0.76666   0.33299   0.47402  -0.1712970000
C          C       0.80705   0.10363   0.33916   0.5854910000
C          C       0.80724   0.14474   0.52676   0.5873250000
C          C       0.77583   0.15035   0.50909   0.0695050000
C          C       0.52583   0.34718   0.52400   0.0687970000
C          C       0.76667   0.08220   0.39337  -0.1714960000
C          C       0.73335   0.16701   0.47402  -0.1711070000
C          C       0.55707   0.35301   0.50583   0.5889460000
C          C       0.55697   0.39505   0.35979   0.5906400000
C          C       0.52580   0.39995   0.34118   0.0660680000
C          C       0.77585   0.09797   0.35755   0.0701740000
C          C       0.51667   0.33127   0.55972  -0.1704650000
C          C       0.98334   0.41673   0.63951  -0.1699980000
H          H       0.64265   0.12503   0.40472   0.4247420000
H          H       0.78257   0.17802   0.45197   0.1586190000
H          H       0.57241   0.46746   0.49967   0.1572880000
H          H       0.89318   0.37508   0.57178   0.4241610000
H          H       0.53257   0.42795   0.61766   0.1581530000
H          H       0.82039   0.21747   0.66541   0.1578140000
H          H       0.60682   0.12493   0.57179   0.4242690000
H          H       0.96743   0.07204   0.61766   0.1581950000
H          H       0.67960   0.28253   0.66540   0.1579290000
H          H       0.85735   0.37495   0.40471   0.4249070000
H          H       0.71744   0.32198   0.45197   0.1587510000
H          H       0.92759   0.03253   0.49967   0.1570380000
H          H       0.87516   0.39310   0.48832   0.4264670000
H          H       0.82262   0.03256   0.53384   0.1580760000
H          H       0.53252   0.32079   0.58229   0.1571080000
H          H       0.62461   0.14267   0.65495   0.4243670000
H          H       0.57095   0.28256   0.36873   0.1586790000
H          H       0.78253   0.07178   0.41600   0.1579580000
H          H       0.87540   0.35732   0.65494   0.4244400000
H          H       0.92905   0.21743   0.36872   0.1587280000
H          H       0.71748   0.42822   0.41600   0.1578080000
H          H       0.62485   0.10690   0.48832   0.4263680000
H          H       0.67739   0.46744   0.53384   0.1580800000
H          H       0.96747   0.17921   0.58229   0.1573210000
H          H       0.64265   0.37495   0.40471   0.4246620000
H          H       0.78257   0.32198   0.45197   0.1586390000
H          H       0.57241   0.03253   0.49967   0.1570300000
H          H       0.89318   0.12493   0.57179   0.4241100000
H          H       0.53257   0.07204   0.61766   0.1581550000
H          H       0.82040   0.28253   0.66540   0.1579430000
H          H       0.60682   0.37509   0.57178   0.4242960000
H          H       0.96743   0.42795   0.61765   0.1581940000
H          H       0.67961   0.21747   0.66541   0.1578380000
H          H       0.85735   0.12504   0.40471   0.4248730000
H          H       0.71744   0.17802   0.45197   0.1586980000
H          H       0.92759   0.46746   0.49967   0.1572340000
H          H       0.87515   0.10690   0.48832   0.4264130000
H          H       0.82261   0.46744   0.53384   0.1581130000
H          H       0.53253   0.17921   0.58229   0.1570130000
H          H       0.62461   0.35732   0.65495   0.4243760000
H          H       0.57095   0.21743   0.36872   0.1587740000
H          H       0.78253   0.42822   0.41600   0.1578230000
H          H       0.87540   0.14267   0.65495   0.4243430000
H          H       0.92905   0.28256   0.36873   0.1587460000
H          H       0.71748   0.07178   0.41600   0.1578820000
H          H       0.62484   0.39310   0.48832   0.4263700000
H          H       0.67739   0.03256   0.53384   0.1580070000
H          H       0.96747   0.32079   0.58229   0.1572380000
Al         Al      0.12442   0.59123   0.34937   1.6720740000
Al         Al      0.37466   0.84149   0.51616   1.6692670000
Al         Al      0.12534   0.65851   0.51617   1.6692970000
Al         Al      0.37558   0.90877   0.34937   1.6720180000
Al         Al      0.40876   0.87467   0.43279   1.6758550000
Al         Al      0.15844   0.62444   0.59949   1.6656760000
Al         Al      0.34156   0.87556   0.59949   1.6657720000
Al         Al      0.09123   0.62533   0.43279   1.6754180000
Al         Al      0.12442   0.90877   0.34937   1.6721170000
Al         Al      0.37466   0.65851   0.51617   1.6692060000
Al         Al      0.12534   0.84149   0.51616   1.6695770000
Al         Al      0.37558   0.59123   0.34937   1.6719530000
Al         Al      0.40876   0.62533   0.43279   1.6754570000
Al         Al      0.15844   0.87556   0.59949   1.6657540000
Al         Al      0.34156   0.62444   0.59949   1.6656680000
Al         Al      0.09123   0.87467   0.43279   1.6756630000
O          O       0.07952   0.90950   0.34170  -0.5805920000
O          O       0.12061   0.55841   0.38977  -0.5702340000
O          O       0.12720   0.87759   0.64124  -1.0044880000
O          O       0.16986   0.59042   0.35822  -0.6018870000
O          O       0.12716   0.55871   0.64206  -0.5639920000
O          O       0.32986   0.65883   0.50831  -0.5785950000
O          O       0.36990   0.80810   0.55626  -0.5661270000
O          O       0.37775   0.62720   0.47476  -1.0085000000
O          O       0.41995   0.83974   0.52500  -0.6009590000
O          O       0.37759   0.80925   0.47530  -0.5641210000
O          O       0.17014   0.84117   0.50831  -0.5785270000
O          O       0.13010   0.69190   0.55627  -0.5660360000
O          O       0.12224   0.87280   0.47476  -1.0087250000
O          O       0.08004   0.66027   0.52500  -0.6010700000
O          O       0.12241   0.69076   0.47530  -0.5644120000
O          O       0.42048   0.59050   0.34170  -0.5804130000
O          O       0.37939   0.94159   0.38977  -0.5700580000
O          O       0.37280   0.62242   0.64124  -1.0045190000
O          O       0.33014   0.90957   0.35821  -0.6017790000
O          O       0.37284   0.94129   0.64206  -0.5641740000
O          O       0.09055   0.82980   0.42490  -0.5803330000
O          O       0.44163   0.87003   0.47313  -0.5701580000
O          O       0.12231   0.87768   0.39127  -1.0074630000
O          O       0.40972   0.92005   0.44169  -0.6010150000
O          O       0.44125   0.87774   0.39222  -0.5647880000
O          O       0.34109   0.57961   0.59170  -0.5800050000
O          O       0.19185   0.62050   0.63962  -0.5655990000
O          O       0.37291   0.62733   0.55806  -1.0036240000
O          O       0.16014   0.66983   0.60820  -0.6008560000
O          O       0.19068   0.62700   0.55874  -0.5633770000
O          O       0.15890   0.92040   0.59169  -0.5799990000
O          O       0.30815   0.87950   0.63961  -0.5655550000
O          O       0.12708   0.87267   0.55806  -1.0038420000
O          O       0.33986   0.83018   0.60820  -0.6007790000
O          O       0.30931   0.87300   0.55874  -0.5633100000
O          O       0.40945   0.67019   0.42490  -0.5802210000
O          O       0.05836   0.62998   0.47313  -0.5699250000
O          O       0.37768   0.62231   0.39128  -1.0076240000
O          O       0.09028   0.57994   0.44169  -0.6006930000
O          O       0.05874   0.62227   0.39222  -0.5645070000
O          O       0.07952   0.59050   0.34170  -0.5805050000
O          O       0.12060   0.94159   0.38977  -0.5701460000
O          O       0.12720   0.62242   0.64125  -1.0044700000
O          O       0.16986   0.90957   0.35821  -0.6017120000
O          O       0.12716   0.94129   0.64206  -0.5638610000
O          O       0.32986   0.84117   0.50831  -0.5785590000
O          O       0.36990   0.69190   0.55627  -0.5662120000
O          O       0.37775   0.87280   0.47476  -1.0087100000
O          O       0.41995   0.66026   0.52500  -0.6009550000
O          O       0.37759   0.69075   0.47530  -0.5640870000
O          O       0.17014   0.65883   0.50831  -0.5785300000
O          O       0.13010   0.80810   0.55626  -0.5659510000
O          O       0.12225   0.62720   0.47476  -1.0085080000
O          O       0.08004   0.83974   0.52500  -0.6011180000
O          O       0.12241   0.80925   0.47530  -0.5644010000
O          O       0.42048   0.90950   0.34170  -0.5804490000
O          O       0.37939   0.55841   0.38977  -0.5699980000
O          O       0.37280   0.87759   0.64124  -1.0046540000
O          O       0.33014   0.59042   0.35822  -0.6019160000
O          O       0.37284   0.55871   0.64206  -0.5639600000
O          O       0.09055   0.67020   0.42490  -0.5801260000
O          O       0.44164   0.62997   0.47313  -0.5700630000
O          O       0.12231   0.62231   0.39128  -1.0075690000
O          O       0.40972   0.57994   0.44169  -0.6007170000
O          O       0.44125   0.62227   0.39222  -0.5646320000
O          O       0.34109   0.92040   0.59169  -0.5798860000
O          O       0.19185   0.87950   0.63961  -0.5656190000
O          O       0.37291   0.87267   0.55806  -1.0037120000
O          O       0.16013   0.83018   0.60820  -0.6008020000
O          O       0.19068   0.87300   0.55874  -0.5634340000
O          O       0.15890   0.57961   0.59170  -0.5801660000
O          O       0.30815   0.62050   0.63962  -0.5657040000
O          O       0.12709   0.62733   0.55806  -1.0037310000
O          O       0.33986   0.66983   0.60820  -0.6007680000
O          O       0.30931   0.62700   0.55874  -0.5632640000
O          O       0.40945   0.82980   0.42490  -0.5805050000
O          O       0.05836   0.87003   0.47313  -0.5700330000
O          O       0.37768   0.87768   0.39127  -1.0076740000
O          O       0.09028   0.92005   0.44169  -0.6008710000
O          O       0.05874   0.87774   0.39222  -0.5647040000
O          O       0.13956   0.50000   0.61278  -0.0667180000
O          O       0.38917   0.74999   0.44596  -0.0693820000
O          O       0.11083   0.74999   0.44596  -0.0695240000
O          O       0.36044   0.50000   0.61278  -0.0667700000
O          O       0.00000   0.88914   0.36251  -0.0631210000
O          O       0.25000   0.86023   0.53069  -0.0660770000
O          O       0.00000   0.61086   0.36251  -0.0632130000
O          O       0.25000   0.63977   0.53069  -0.0658120000
O          O       0.35717   0.75000   0.58550  -0.0636220000
O          O       0.10799   0.50000   0.41882  -0.0618830000
O          O       0.39200   0.50000   0.41882  -0.0617380000
O          O       0.14283   0.75000   0.58550  -0.0634730000
O          O       0.25000   0.60794   0.33558  -0.0651900000
O          O       0.00000   0.64279   0.50211  -0.0636450000
O          O       0.25000   0.89206   0.33558  -0.0651260000
O          O       0.00000   0.85721   0.50211  -0.0635390000
C          C       0.10368   0.55705   0.42256   0.5884530000
C          C       0.14467   0.55696   0.60981   0.5912540000
C          C       0.15000   0.52581   0.59128   0.0688290000
C          C       0.34703   0.77585   0.60732   0.0690900000
C          C       0.08265   0.51667   0.47691  -0.1695040000
C          C       0.16645   0.98334   0.55599  -0.1706500000
C          C       0.35296   0.80705   0.58907   0.5847350000
C          C       0.39507   0.80722   0.44308   0.5895420000
C          C       0.40026   0.77585   0.42489   0.0701680000
C          C       0.09817   0.52582   0.44091   0.0673360000
C          C       0.33098   0.76668   0.64291  -0.1711000000
C          C       0.41752   0.73333   0.39033  -0.1715730000
C          C       0.14704   0.69295   0.58907   0.5847840000
C          C       0.10493   0.69278   0.44308   0.5893440000
C          C       0.09974   0.72414   0.42489   0.0703160000
C          C       0.40182   0.97417   0.44091   0.0674690000
C          C       0.16901   0.73333   0.64292  -0.1709430000
C          C       0.08248   0.76666   0.39033  -0.1714340000
C          C       0.39632   0.94295   0.42256   0.5886500000
C          C       0.35533   0.94305   0.60980   0.5910980000
C          C       0.35000   0.97419   0.59127   0.0687700000
C          C       0.15296   0.72415   0.60732   0.0690390000
C          C       0.41735   0.98333   0.47691  -0.1703490000
C          C       0.33355   0.51667   0.55599  -0.1705010000
C          C       0.44293   0.85301   0.50583   0.5887240000
C          C       0.44303   0.89505   0.35979   0.5905550000
C          C       0.47420   0.89995   0.34118   0.0660910000
C          C       0.22415   0.59797   0.35755   0.0704290000
C          C       0.48333   0.83127   0.55971  -0.1701250000
C          C       0.01666   0.91673   0.63951  -0.1699910000
C          C       0.19295   0.60363   0.33916   0.5853220000
C          C       0.19276   0.64474   0.52676   0.5872860000
C          C       0.22417   0.65035   0.50909   0.0696560000
C          C       0.47416   0.84718   0.52400   0.0688060000
C          C       0.23333   0.58220   0.39337  -0.1714930000
C          C       0.26666   0.66701   0.47402  -0.1712890000
C          C       0.30706   0.89637   0.33915   0.5852150000
C          C       0.30724   0.85527   0.52676   0.5873230000
C          C       0.27583   0.84966   0.50909   0.0696690000
C          C       0.02584   0.65282   0.52400   0.0689370000
C          C       0.26667   0.91780   0.39336  -0.1714880000
C          C       0.23334   0.83299   0.47402  -0.1712080000
C          C       0.05707   0.64699   0.50583   0.5887220000
C          C       0.05697   0.60495   0.35979   0.5903750000
C          C       0.02579   0.60005   0.34118   0.0662690000
C          C       0.27585   0.90204   0.35755   0.0703250000
C          C       0.01667   0.66873   0.55972  -0.1703180000
C          C       0.48334   0.58327   0.63952  -0.1700230000
C          C       0.10368   0.94295   0.42256   0.5886000000
C          C       0.14467   0.94305   0.60981   0.5909880000
C          C       0.15000   0.97419   0.59128   0.0687060000
C          C       0.34703   0.72415   0.60732   0.0690780000
C          C       0.08265   0.98333   0.47691  -0.1702660000
C          C       0.16645   0.51667   0.55599  -0.1705970000
C          C       0.35296   0.69295   0.58907   0.5848170000
C          C       0.39507   0.69278   0.44308   0.5890470000
C          C       0.40026   0.72414   0.42489   0.0703530000
C          C       0.09818   0.97417   0.44091   0.0674130000
C          C       0.33098   0.73333   0.64292  -0.1707800000
C          C       0.41752   0.76666   0.39033  -0.1717200000
C          C       0.14704   0.80705   0.58907   0.5845790000
C          C       0.10493   0.80722   0.44308   0.5896170000
C          C       0.09974   0.77585   0.42489   0.0699380000
C          C       0.40182   0.52582   0.44091   0.0673890000
C          C       0.16901   0.76668   0.64292  -0.1711100000
C          C       0.08248   0.73333   0.39033  -0.1716070000
C          C       0.39632   0.55705   0.42256   0.5882200000
C          C       0.35532   0.55696   0.60981   0.5910400000
C          C       0.35000   0.52581   0.59128   0.0688920000
C          C       0.15296   0.77585   0.60732   0.0691010000
C          C       0.41735   0.51667   0.47691  -0.1695650000
C          C       0.33355   0.98334   0.55599  -0.1707200000
C          C       0.44293   0.64699   0.50583   0.5887410000
C          C       0.44303   0.60495   0.35979   0.5903680000
C          C       0.47420   0.60005   0.34118   0.0663060000
C          C       0.22415   0.90204   0.35755   0.0704100000
C          C       0.48333   0.66873   0.55972  -0.1704360000
C          C       0.01666   0.58327   0.63952  -0.1701110000
C          C       0.19295   0.89637   0.33915   0.5849970000
C          C       0.19276   0.85527   0.52676   0.5873060000
C          C       0.22417   0.84966   0.50909   0.0698030000
C          C       0.47416   0.65282   0.52400   0.0690230000
C          C       0.23333   0.91780   0.39336  -0.1714000000
C          C       0.26666   0.83299   0.47402  -0.1712970000
C          C       0.30705   0.60363   0.33916   0.5854910000
C          C       0.30724   0.64474   0.52676   0.5873250000
C          C       0.27583   0.65035   0.50909   0.0695050000
C          C       0.02583   0.84718   0.52400   0.0687970000
C          C       0.26667   0.58220   0.39337  -0.1714960000
C          C       0.23334   0.66701   0.47402  -0.1711070000
C          C       0.05706   0.85301   0.50583   0.5889460000
C          C       0.05696   0.89505   0.35979   0.5906400000
C          C       0.02579   0.89995   0.34118   0.0660680000
C          C       0.27585   0.59797   0.35755   0.0701740000
C          C       0.01667   0.83127   0.55972  -0.1704650000
C          C       0.48334   0.91673   0.63951  -0.1699980000
H          H       0.14265   0.62503   0.40472   0.4247420000
H          H       0.28257   0.67802   0.45197   0.1586190000
H          H       0.07241   0.96746   0.49967   0.1572880000
H          H       0.39318   0.87508   0.57178   0.4241610000
H          H       0.03257   0.92795   0.61766   0.1581530000
H          H       0.32039   0.71747   0.66541   0.1578140000
H          H       0.10682   0.62493   0.57179   0.4242690000
H          H       0.46743   0.57204   0.61766   0.1581950000
H          H       0.17960   0.78253   0.66540   0.1579290000
H          H       0.35735   0.87496   0.40471   0.4249070000
H          H       0.21743   0.82198   0.45197   0.1587510000
H          H       0.42759   0.53253   0.49967   0.1570380000
H          H       0.37516   0.89310   0.48832   0.4264670000
H          H       0.32261   0.53256   0.53384   0.1580760000
H          H       0.03252   0.82079   0.58229   0.1571080000
H          H       0.12460   0.64268   0.65495   0.4243670000
H          H       0.07095   0.78256   0.36873   0.1586790000
H          H       0.28253   0.57178   0.41600   0.1579580000
H          H       0.37539   0.85733   0.65494   0.4244400000
H          H       0.42905   0.71744   0.36872   0.1587280000
H          H       0.21748   0.92822   0.41600   0.1578080000
H          H       0.12484   0.60690   0.48832   0.4263680000
H          H       0.17739   0.96744   0.53384   0.1580800000
H          H       0.46747   0.67921   0.58229   0.1573210000
H          H       0.14265   0.87496   0.40471   0.4246620000
H          H       0.28257   0.82198   0.45197   0.1586390000
H          H       0.07241   0.53253   0.49967   0.1570300000
H          H       0.39318   0.62493   0.57179   0.4241100000
H          H       0.03257   0.57204   0.61766   0.1581550000
H          H       0.32040   0.78253   0.66540   0.1579430000
H          H       0.10682   0.87509   0.57178   0.4242960000
H          H       0.46743   0.92795   0.61765   0.1581940000
H          H       0.17960   0.71747   0.66541   0.1578380000
H          H       0.35735   0.62504   0.40471   0.4248730000
H          H       0.21744   0.67802   0.45197   0.1586980000
H          H       0.42759   0.96746   0.49967   0.1572340000
H          H       0.37515   0.60690   0.48832   0.4264130000
H          H       0.32261   0.96744   0.53384   0.1581130000
H          H       0.03252   0.67921   0.58229   0.1570130000
H          H       0.12460   0.85733   0.65495   0.4243760000
H          H       0.07095   0.71744   0.36872   0.1587740000
H          H       0.28253   0.92822   0.41600   0.1578230000
H          H       0.37540   0.64268   0.65495   0.4243430000
H          H       0.42905   0.78256   0.36873   0.1587460000
H          H       0.21748   0.57178   0.41600   0.1578820000
H          H       0.12484   0.89310   0.48832   0.4263700000
H          H       0.17739   0.53256   0.53384   0.1580070000
H          H       0.46747   0.82079   0.58229   0.1572380000
Al         Al      0.62442   0.59123   0.34937   1.6720740000
Al         Al      0.87466   0.84149   0.51616   1.6692670000
Al         Al      0.62534   0.65851   0.51617   1.6692970000
Al         Al      0.87558   0.90877   0.34937   1.6720180000
Al         Al      0.90876   0.87467   0.43279   1.6758550000
Al         Al      0.65844   0.62444   0.59949   1.6656760000
Al         Al      0.84156   0.87556   0.59949   1.6657720000
Al         Al      0.59124   0.62533   0.43279   1.6754180000
Al         Al      0.62442   0.90877   0.34937   1.6721170000
Al         Al      0.87466   0.65851   0.51617   1.6692060000
Al         Al      0.62534   0.84149   0.51616   1.6695770000
Al         Al      0.87558   0.59123   0.34937   1.6719530000
Al         Al      0.90876   0.62533   0.43279   1.6754570000
Al         Al      0.65844   0.87556   0.59949   1.6657540000
Al         Al      0.84156   0.62444   0.59949   1.6656680000
Al         Al      0.59124   0.87467   0.43279   1.6756630000
O          O       0.57951   0.90950   0.34170  -0.5805920000
O          O       0.62061   0.55841   0.38977  -0.5702340000
O          O       0.62720   0.87759   0.64124  -1.0044880000
O          O       0.66987   0.59042   0.35822  -0.6018870000
O          O       0.62716   0.55871   0.64206  -0.5639920000
O          O       0.82986   0.65883   0.50831  -0.5785950000
O          O       0.86990   0.80810   0.55626  -0.5661270000
O          O       0.87775   0.62720   0.47476  -1.0085000000
O          O       0.91995   0.83974   0.52500  -0.6009590000
O          O       0.87759   0.80925   0.47530  -0.5641210000
O          O       0.67014   0.84117   0.50831  -0.5785270000
O          O       0.63010   0.69190   0.55627  -0.5660360000
O          O       0.62225   0.87280   0.47476  -1.0087250000
O          O       0.58005   0.66027   0.52500  -0.6010700000
O          O       0.62241   0.69076   0.47530  -0.5644120000
O          O       0.92048   0.59050   0.34170  -0.5804130000
O          O       0.87939   0.94159   0.38977  -0.5700580000
O          O       0.87280   0.62242   0.64124  -1.0045190000
O          O       0.83013   0.90957   0.35821  -0.6017790000
O          O       0.87284   0.94129   0.64206  -0.5641740000
O          O       0.59055   0.82980   0.42490  -0.5803330000
O          O       0.94163   0.87003   0.47313  -0.5701580000
O          O       0.62232   0.87768   0.39127  -1.0074630000
O          O       0.90972   0.92005   0.44169  -0.6010150000
O          O       0.94125   0.87774   0.39222  -0.5647880000
O          O       0.84109   0.57961   0.59170  -0.5800050000
O          O       0.69185   0.62050   0.63962  -0.5655990000
O          O       0.87292   0.62733   0.55806  -1.0036240000
O          O       0.66014   0.66983   0.60820  -0.6008560000
O          O       0.69069   0.62700   0.55874  -0.5633770000
O          O       0.65890   0.92040   0.59169  -0.5799990000
O          O       0.80815   0.87950   0.63961  -0.5655550000
O          O       0.62709   0.87267   0.55806  -1.0038420000
O          O       0.83986   0.83018   0.60820  -0.6007790000
O          O       0.80931   0.87300   0.55874  -0.5633100000
O          O       0.90945   0.67019   0.42490  -0.5802210000
O          O       0.55836   0.62998   0.47313  -0.5699250000
O          O       0.87769   0.62231   0.39128  -1.0076240000
O          O       0.59028   0.57994   0.44169  -0.6006930000
O          O       0.55875   0.62227   0.39222  -0.5645070000
O          O       0.57952   0.59050   0.34170  -0.5805050000
O          O       0.62060   0.94159   0.38977  -0.5701460000
O          O       0.62720   0.62242   0.64125  -1.0044700000
O          O       0.66986   0.90957   0.35821  -0.6017120000
O          O       0.62716   0.94129   0.64206  -0.5638610000
O          O       0.82986   0.84117   0.50831  -0.5785590000
O          O       0.86990   0.69190   0.55627  -0.5662120000
O          O       0.87775   0.87280   0.47476  -1.0087100000
O          O       0.91995   0.66026   0.52500  -0.6009550000
O          O       0.87759   0.69075   0.47530  -0.5640870000
O          O       0.67014   0.65883   0.50831  -0.5785300000
O          O       0.63010   0.80810   0.55626  -0.5659510000
O          O       0.62225   0.62720   0.47476  -1.0085080000
O          O       0.58005   0.83974   0.52500  -0.6011180000
O          O       0.62241   0.80925   0.47530  -0.5644010000
O          O       0.92048   0.90950   0.34170  -0.5804490000
O          O       0.87940   0.55841   0.38977  -0.5699980000
O          O       0.87281   0.87759   0.64124  -1.0046540000
O          O       0.83014   0.59042   0.35822  -0.6019160000
O          O       0.87284   0.55871   0.64206  -0.5639600000
O          O       0.59055   0.67020   0.42490  -0.5801260000
O          O       0.94164   0.62997   0.47313  -0.5700630000
O          O       0.62232   0.62231   0.39128  -1.0075690000
O          O       0.90972   0.57994   0.44169  -0.6007170000
O          O       0.94125   0.62227   0.39222  -0.5646320000
O          O       0.84110   0.92040   0.59169  -0.5798860000
O          O       0.69185   0.87950   0.63961  -0.5656190000
O          O       0.87292   0.87267   0.55806  -1.0037120000
O          O       0.66014   0.83018   0.60820  -0.6008020000
O          O       0.69069   0.87300   0.55874  -0.5634340000
O          O       0.65890   0.57961   0.59170  -0.5801660000
O          O       0.80815   0.62050   0.63962  -0.5657040000
O          O       0.62709   0.62733   0.55806  -1.0037310000
O          O       0.83986   0.66983   0.60820  -0.6007680000
O          O       0.80931   0.62700   0.55874  -0.5632640000
O          O       0.90945   0.82980   0.42490  -0.5805050000
O          O       0.55836   0.87003   0.47313  -0.5700330000
O          O       0.87769   0.87768   0.39127  -1.0076740000
O          O       0.59028   0.92005   0.44169  -0.6008710000
O          O       0.55875   0.87774   0.39222  -0.5647040000
O          O       0.63956   0.50000   0.61278  -0.0667180000
O          O       0.88917   0.74999   0.44596  -0.0693820000
O          O       0.61083   0.74999   0.44596  -0.0695240000
O          O       0.86044   0.50000   0.61278  -0.0667700000
O          O       0.50000   0.88914   0.36251  -0.0631210000
O          O       0.75000   0.86023   0.53069  -0.0660770000
O          O       0.50000   0.61086   0.36251  -0.0632130000
O          O       0.75000   0.63977   0.53069  -0.0658120000
O          O       0.85717   0.75000   0.58550  -0.0636220000
O          O       0.60800   0.50000   0.41882  -0.0618830000
O          O       0.89201   0.50000   0.41882  -0.0617380000
O          O       0.64284   0.75000   0.58550  -0.0634730000
O          O       0.75000   0.60794   0.33558  -0.0651900000
O          O       0.50000   0.64279   0.50211  -0.0636450000
O          O       0.75000   0.89206   0.33558  -0.0651260000
O          O       0.50000   0.85721   0.50211  -0.0635390000
C          C       0.60368   0.55705   0.42256   0.5884530000
C          C       0.64467   0.55696   0.60981   0.5912540000
C          C       0.65000   0.52581   0.59128   0.0688290000
C          C       0.84703   0.77585   0.60732   0.0690900000
C          C       0.58265   0.51667   0.47691  -0.1695040000
C          C       0.66645   0.98334   0.55599  -0.1706500000
C          C       0.85296   0.80705   0.58907   0.5847350000
C          C       0.89508   0.80722   0.44308   0.5895420000
C          C       0.90026   0.77585   0.42489   0.0701680000
C          C       0.59818   0.52582   0.44091   0.0673360000
C          C       0.83098   0.76668   0.64291  -0.1711000000
C          C       0.91752   0.73333   0.39033  -0.1715730000
C          C       0.64704   0.69295   0.58907   0.5847840000
C          C       0.60493   0.69278   0.44308   0.5893440000
C          C       0.59974   0.72414   0.42489   0.0703160000
C          C       0.90182   0.97417   0.44091   0.0674690000
C          C       0.66902   0.73333   0.64292  -0.1709430000
C          C       0.58248   0.76666   0.39033  -0.1714340000
C          C       0.89632   0.94295   0.42256   0.5886500000
C          C       0.85532   0.94305   0.60980   0.5910980000
C          C       0.85000   0.97419   0.59127   0.0687700000
C          C       0.65297   0.72415   0.60732   0.0690390000
C          C       0.91735   0.98333   0.47691  -0.1703490000
C          C       0.83355   0.51667   0.55599  -0.1705010000
C          C       0.94294   0.85301   0.50583   0.5887240000
C          C       0.94303   0.89505   0.35979   0.5905550000
C          C       0.97420   0.89995   0.34118   0.0660910000
C          C       0.72415   0.59797   0.35755   0.0704290000
C          C       0.98333   0.83127   0.55971  -0.1701250000
C          C       0.51666   0.91673   0.63951  -0.1699910000
C          C       0.69295   0.60363   0.33916   0.5853220000
C          C       0.69276   0.64474   0.52676   0.5872860000
C          C       0.72417   0.65035   0.50909   0.0696560000
C          C       0.97417   0.84718   0.52400   0.0688060000
C          C       0.73333   0.58220   0.39337  -0.1714930000
C          C       0.76666   0.66701   0.47402  -0.1712890000
C          C       0.80706   0.89637   0.33915   0.5852150000
C          C       0.80724   0.85527   0.52676   0.5873230000
C          C       0.77583   0.84966   0.50909   0.0696690000
C          C       0.52584   0.65282   0.52400   0.0689370000
C          C       0.76667   0.91780   0.39336  -0.1714880000
C          C       0.73335   0.83299   0.47402  -0.1712080000
C          C       0.55707   0.64699   0.50583   0.5887220000
C          C       0.55697   0.60495   0.35979   0.5903750000
C          C       0.52580   0.60005   0.34118   0.0662690000
C          C       0.77585   0.90204   0.35755   0.0703250000
C          C       0.51667   0.66873   0.55972  -0.1703180000
C          C       0.98334   0.58327   0.63952  -0.1700230000
C          C       0.60368   0.94295   0.42256   0.5886000000
C          C       0.64467   0.94305   0.60981   0.5909880000
C          C       0.65000   0.97419   0.59128   0.0687060000
C          C       0.84703   0.72415   0.60732   0.0690780000
C          C       0.58265   0.98333   0.47691  -0.1702660000
C          C       0.66645   0.51667   0.55599  -0.1705970000
C          C       0.85296   0.69295   0.58907   0.5848170000
C          C       0.89508   0.69278   0.44308   0.5890470000
C          C       0.90026   0.72414   0.42489   0.0703530000
C          C       0.59818   0.97417   0.44091   0.0674130000
C          C       0.83098   0.73333   0.64292  -0.1707800000
C          C       0.91752   0.76666   0.39033  -0.1717200000
C          C       0.64704   0.80705   0.58907   0.5845790000
C          C       0.60493   0.80722   0.44308   0.5896170000
C          C       0.59974   0.77585   0.42489   0.0699380000
C          C       0.90182   0.52582   0.44091   0.0673890000
C          C       0.66902   0.76668   0.64292  -0.1711100000
C          C       0.58248   0.73333   0.39033  -0.1716070000
C          C       0.89632   0.55705   0.42256   0.5882200000
C          C       0.85533   0.55696   0.60981   0.5910400000
C          C       0.85000   0.52581   0.59128   0.0688920000
C          C       0.65297   0.77585   0.60732   0.0691010000
C          C       0.91735   0.51667   0.47691  -0.1695650000
C          C       0.83355   0.98334   0.55599  -0.1707200000
C          C       0.94294   0.64699   0.50583   0.5887410000
C          C       0.94303   0.60495   0.35979   0.5903680000
C          C       0.97420   0.60005   0.34118   0.0663060000
C          C       0.72415   0.90204   0.35755   0.0704100000
C          C       0.98333   0.66873   0.55972  -0.1704360000
C          C       0.51666   0.58327   0.63952  -0.1701110000
C          C       0.69295   0.89637   0.33915   0.5849970000
C          C       0.69276   0.85527   0.52676   0.5873060000
C          C       0.72417   0.84966   0.50909   0.0698030000
C          C       0.97417   0.65282   0.52400   0.0690230000
C          C       0.73333   0.91780   0.39336  -0.1714000000
C          C       0.76666   0.83299   0.47402  -0.1712970000
C          C       0.80705   0.60363   0.33916   0.5854910000
C          C       0.80724   0.64474   0.52676   0.5873250000
C          C       0.77583   0.65035   0.50909   0.0695050000
C          C       0.52583   0.84718   0.52400   0.0687970000
C          C       0.76667   0.58220   0.39337  -0.1714960000
C          C       0.73335   0.66701   0.47402  -0.1711070000
C          C       0.55707   0.85301   0.50583   0.5889460000
C          C       0.55697   0.89505   0.35979   0.5906400000
C          C       0.52580   0.89995   0.34118   0.0660680000
C          C       0.77585   0.59797   0.35755   0.0701740000
C          C       0.51667   0.83127   0.55972  -0.1704650000
C          C       0.98334   0.91673   0.63951  -0.1699980000
H          H       0.64265   0.62503   0.40472   0.4247420000
H          H       0.78257   0.67802   0.45197   0.1586190000
H          H       0.57241   0.96746   0.49967   0.1572880000
H          H       0.89318   0.87508   0.57178   0.4241610000
H          H       0.53257   0.92795   0.61766   0.1581530000
H          H       0.82039   0.71747   0.66541   0.1578140000
H          H       0.60682   0.62493   0.57179   0.4242690000
H          H       0.96743   0.57204   0.61766   0.1581950000
H          H       0.67960   0.78253   0.66540   0.1579290000
H          H       0.85735   0.87496   0.40471   0.4249070000
H          H       0.71744   0.82198   0.45197   0.1587510000
H          H       0.92759   0.53253   0.49967   0.1570380000
H          H       0.87516   0.89310   0.48832   0.4264670000
H          H       0.82262   0.53256   0.53384   0.1580760000
H          H       0.53252   0.82079   0.58229   0.1571080000
H          H       0.62461   0.64268   0.65495   0.4243670000
H          H       0.57095   0.78256   0.36873   0.1586790000
H          H       0.78253   0.57178   0.41600   0.1579580000
H          H       0.87540   0.85733   0.65494   0.4244400000
H          H       0.92905   0.71744   0.36872   0.1587280000
H          H       0.71748   0.92822   0.41600   0.1578080000
H          H       0.62485   0.60690   0.48832   0.4263680000
H          H       0.67739   0.96744   0.53384   0.1580800000
H          H       0.96747   0.67921   0.58229   0.1573210000
H          H       0.64265   0.87496   0.40471   0.4246620000
H          H       0.78257   0.82198   0.45197   0.1586390000
H          H       0.57241   0.53253   0.49967   0.1570300000
H          H       0.89318   0.62493   0.57179   0.4241100000
H          H       0.53257   0.57204   0.61766   0.1581550000
H          H       0.82040   0.78253   0.66540   0.1579430000
H          H       0.60682   0.87509   0.57178   0.4242960000
H          H       0.96743   0.92795   0.61765   0.1581940000
H          H       0.67961   0.71747   0.66541   0.1578380000
H          H       0.85735   0.62504   0.40471   0.4248730000
H          H       0.71744   0.67802   0.45197   0.1586980000
H          H       0.92759   0.96746   0.49967   0.1572340000
H          H       0.87515   0.60690   0.48832   0.4264130000
H          H       0.82261   0.96744   0.53384   0.1581130000
H          H       0.53253   0.67921   0.58229   0.1570130000
H          H       0.62461   0.85733   0.65495   0.4243760000
H          H       0.57095   0.71744   0.36872   0.1587740000
H          H       0.78253   0.92822   0.41600   0.1578230000
H          H       0.87540   0.64268   0.65495   0.4243430000
H          H       0.92905   0.78256   0.36873   0.1587460000
H          H       0.71748   0.57178   0.41600   0.1578820000
H          H       0.62484   0.89310   0.48832   0.4263700000
H          H       0.67739   0.53256   0.53384   0.1580070000
H          H       0.96747   0.82079   0.58229   0.1572380000
Al         Al      0.12442   0.09123   0.68270   1.6720740000
Al         Al      0.37466   0.34149   0.84950   1.6692670000
Al         Al      0.12534   0.15851   0.84950   1.6692970000
Al         Al      0.37558   0.40877   0.68270   1.6720180000
Al         Al      0.40876   0.37467   0.76612   1.6758550000
Al         Al      0.15844   0.12444   0.93282   1.6656760000
Al         Al      0.34156   0.37556   0.93282   1.6657720000
Al         Al      0.09123   0.12533   0.76613   1.6754180000
Al         Al      0.12442   0.40876   0.68270   1.6721170000
Al         Al      0.37466   0.15851   0.84950   1.6692060000
Al         Al      0.12534   0.34149   0.84950   1.6695770000
Al         Al      0.37558   0.09123   0.68270   1.6719530000
Al         Al      0.40876   0.12533   0.76613   1.6754570000
Al         Al      0.15844   0.37556   0.93282   1.6657540000
Al         Al      0.34156   0.12444   0.93282   1.6656680000
Al         Al      0.09123   0.37467   0.76612   1.6756630000
O          O       0.07952   0.40950   0.67504  -0.5805920000
O          O       0.12060   0.05841   0.72310  -0.5702340000
O          O       0.12719   0.37758   0.97458  -1.0044880000
O          O       0.16986   0.09043   0.69155  -0.6018870000
O          O       0.12716   0.05871   0.97540  -0.5639920000
O          O       0.32986   0.15883   0.84164  -0.5785950000
O          O       0.36990   0.30810   0.88960  -0.5661270000
O          O       0.37775   0.12720   0.80809  -1.0085000000
O          O       0.41995   0.33974   0.85833  -0.6009590000
O          O       0.37759   0.30924   0.80863  -0.5641210000
O          O       0.17014   0.34117   0.84164  -0.5785270000
O          O       0.13010   0.19190   0.88960  -0.5660360000
O          O       0.12224   0.37279   0.80809  -1.0087250000
O          O       0.08005   0.16026   0.85833  -0.6010700000
O          O       0.12241   0.19076   0.80863  -0.5644120000
O          O       0.42048   0.09050   0.67504  -0.5804130000
O          O       0.37939   0.44158   0.72310  -0.5700580000
O          O       0.37280   0.12241   0.97458  -1.0045190000
O          O       0.33014   0.40957   0.69155  -0.6017790000
O          O       0.37284   0.44129   0.97539  -0.5641740000
O          O       0.09055   0.32980   0.75823  -0.5803330000
O          O       0.44163   0.37002   0.80646  -0.5701580000
O          O       0.12231   0.37768   0.72461  -1.0074630000
O          O       0.40972   0.42005   0.77502  -0.6010150000
O          O       0.44125   0.37773   0.72555  -0.5647880000
O          O       0.34109   0.07961   0.92503  -0.5800050000
O          O       0.19185   0.12050   0.97295  -0.5655990000
O          O       0.37291   0.12733   0.89140  -1.0036240000
O          O       0.16013   0.16983   0.94153  -0.6008560000
O          O       0.19068   0.12700   0.89207  -0.5633770000
O          O       0.15890   0.42040   0.92503  -0.5799990000
O          O       0.30815   0.37950   0.97295  -0.5655550000
O          O       0.12709   0.37267   0.89140  -1.0038420000
O          O       0.33986   0.33017   0.94153  -0.6007790000
O          O       0.30931   0.37300   0.89207  -0.5633100000
O          O       0.40945   0.17020   0.75823  -0.5802210000
O          O       0.05836   0.12998   0.80647  -0.5699250000
O          O       0.37768   0.12231   0.72461  -1.0076240000
O          O       0.09028   0.07994   0.77503  -0.6006930000
O          O       0.05874   0.12226   0.72555  -0.5645070000
O          O       0.07952   0.09050   0.67504  -0.5805050000
O          O       0.12060   0.44158   0.72310  -0.5701460000
O          O       0.12719   0.12241   0.97458  -1.0044700000
O          O       0.16986   0.40957   0.69155  -0.6017120000
O          O       0.12716   0.44129   0.97539  -0.5638610000
O          O       0.32986   0.34117   0.84164  -0.5785590000
O          O       0.36990   0.19190   0.88960  -0.5662120000
O          O       0.37775   0.37279   0.80809  -1.0087100000
O          O       0.41995   0.16026   0.85833  -0.6009550000
O          O       0.37759   0.19075   0.80863  -0.5640870000
O          O       0.17014   0.15883   0.84164  -0.5785300000
O          O       0.13010   0.30810   0.88960  -0.5659510000
O          O       0.12225   0.12720   0.80809  -1.0085080000
O          O       0.08005   0.33974   0.85834  -0.6011180000
O          O       0.12241   0.30924   0.80863  -0.5644010000
O          O       0.42048   0.40950   0.67504  -0.5804490000
O          O       0.37939   0.05841   0.72310  -0.5699980000
O          O       0.37281   0.37758   0.97458  -1.0046540000
O          O       0.33014   0.09043   0.69155  -0.6019160000
O          O       0.37284   0.05871   0.97540  -0.5639600000
O          O       0.09055   0.17020   0.75823  -0.5801260000
O          O       0.44164   0.12997   0.80647  -0.5700630000
O          O       0.12231   0.12231   0.72461  -1.0075690000
O          O       0.40972   0.07994   0.77503  -0.6007170000
O          O       0.44125   0.12226   0.72555  -0.5646320000
O          O       0.34109   0.42040   0.92503  -0.5798860000
O          O       0.19185   0.37950   0.97295  -0.5656190000
O          O       0.37291   0.37267   0.89140  -1.0037120000
O          O       0.16013   0.33017   0.94153  -0.6008020000
O          O       0.19069   0.37300   0.89207  -0.5634340000
O          O       0.15890   0.07961   0.92503  -0.5801660000
O          O       0.30815   0.12050   0.97295  -0.5657040000
O          O       0.12709   0.12733   0.89140  -1.0037310000
O          O       0.33986   0.16983   0.94154  -0.6007680000
O          O       0.30931   0.12700   0.89207  -0.5632640000
O          O       0.40945   0.32980   0.75823  -0.5805050000
O          O       0.05836   0.37002   0.80647  -0.5700330000
O          O       0.37768   0.37768   0.72461  -1.0076740000
O          O       0.09028   0.42005   0.77502  -0.6008710000
O          O       0.05874   0.37773   0.72555  -0.5647040000
O          O       0.13956   0.00000   0.94612  -0.0667180000
O          O       0.38917   0.25000   0.77930  -0.0693820000
O          O       0.11082   0.25000   0.77930  -0.0695240000
O          O       0.36044   0.00000   0.94612  -0.0667700000
O          O       0.00000   0.38914   0.69584  -0.0631210000
O          O       0.25000   0.36023   0.86402  -0.0660770000
O          O       0.00000   0.11086   0.69584  -0.0632130000
O          O       0.25000   0.13977   0.86403  -0.0658120000
O          O       0.35717   0.25000   0.91884  -0.0636220000
O          O       0.10799  -0.00000   0.75216  -0.0618830000
O          O       0.39200  -0.00000   0.75216  -0.0617380000
O          O       0.14283   0.25000   0.91884  -0.0634730000
O          O       0.25000   0.10794   0.66891  -0.0651900000
O          O      -0.00000   0.14279   0.83544  -0.0636450000
O          O       0.25000   0.39206   0.66891  -0.0651260000
O          O       0.00000   0.35721   0.83544  -0.0635390000
C          C       0.10368   0.05704   0.75590   0.5884530000
C          C       0.14467   0.05695   0.94314   0.5912540000
C          C       0.15000   0.02581   0.92461   0.0688290000
C          C       0.34703   0.27585   0.94066   0.0690900000
C          C       0.08265   0.01667   0.81025  -0.1695040000
C          C       0.16645   0.48333   0.88932  -0.1706500000
C          C       0.35296   0.30705   0.92240   0.5847350000
C          C       0.39507   0.30722   0.77641   0.5895420000
C          C       0.40026   0.27585   0.75822   0.0701680000
C          C       0.09817   0.02583   0.77424   0.0673360000
C          C       0.33098   0.26667   0.97625  -0.1711000000
C          C       0.41752   0.23333   0.72366  -0.1715730000
C          C       0.14704   0.19295   0.92241   0.5847840000
C          C       0.10493   0.19278   0.77641   0.5893440000
C          C       0.09974   0.22414   0.75822   0.0703160000
C          C       0.40182   0.47417   0.77424   0.0674690000
C          C       0.16901   0.23332   0.97625  -0.1709430000
C          C       0.08248   0.26666   0.72366  -0.1714340000
C          C       0.39632   0.44295   0.75589   0.5886500000
C          C       0.35533   0.44305   0.94314   0.5910980000
C          C       0.35000   0.47419   0.92461   0.0687700000
C          C       0.15296   0.22415   0.94066   0.0690390000
C          C       0.41735   0.48333   0.81024  -0.1703490000
C          C       0.33355   0.01667   0.88932  -0.1705010000
C          C       0.44293   0.35301   0.83916   0.5887240000
C          C       0.44303   0.39505   0.69312   0.5905550000
C          C       0.47420   0.39995   0.67451   0.0660910000
C          C       0.22415   0.09796   0.69088   0.0704290000
C          C       0.48333   0.33127   0.89305  -0.1701250000
C          C       0.01666   0.41673   0.97285  -0.1699910000
C          C       0.19295   0.10362   0.67249   0.5853220000
C          C       0.19276   0.14474   0.86010   0.5872860000
C          C       0.22417   0.15035   0.84243   0.0696560000
C          C       0.47416   0.34718   0.85734   0.0688060000
C          C       0.23333   0.08220   0.72670  -0.1714930000
C          C       0.26666   0.16701   0.80736  -0.1712890000
C          C       0.30706   0.39637   0.67249   0.5852150000
C          C       0.30724   0.35526   0.86010   0.5873230000
C          C       0.27583   0.34965   0.84242   0.0696690000
C          C       0.02584   0.15282   0.85734   0.0689370000
C          C       0.26667   0.41780   0.72670  -0.1714880000
C          C       0.23334   0.33298   0.80736  -0.1712080000
C          C       0.05707   0.14699   0.83916   0.5887220000
C          C       0.05697   0.10495   0.69313   0.5903750000
C          C       0.02579   0.10005   0.67452   0.0662690000
C          C       0.27585   0.40203   0.69088   0.0703250000
C          C       0.01667   0.16873   0.89305  -0.1703180000
C          C       0.48334   0.08327   0.97285  -0.1700230000
C          C       0.10368   0.44295   0.75589   0.5886000000
C          C       0.14467   0.44305   0.94314   0.5909880000
C          C       0.15000   0.47419   0.92461   0.0687060000
C          C       0.34703   0.22415   0.94066   0.0690780000
C          C       0.08265   0.48333   0.81024  -0.1702660000
C          C       0.16645   0.01667   0.88932  -0.1705970000
C          C       0.35296   0.19295   0.92241   0.5848170000
C          C       0.39507   0.19278   0.77641   0.5890470000
C          C       0.40026   0.22414   0.75822   0.0703530000
C          C       0.09818   0.47417   0.77424   0.0674130000
C          C       0.33098   0.23332   0.97625  -0.1707800000
C          C       0.41752   0.26666   0.72366  -0.1717200000
C          C       0.14704   0.30705   0.92240   0.5845790000
C          C       0.10493   0.30722   0.77641   0.5896170000
C          C       0.09974   0.27586   0.75822   0.0699380000
C          C       0.40182   0.02582   0.77424   0.0673890000
C          C       0.16901   0.26667   0.97625  -0.1711100000
C          C       0.08248   0.23333   0.72366  -0.1716070000
C          C       0.39632   0.05704   0.75590   0.5882200000
C          C       0.35533   0.05695   0.94314   0.5910400000
C          C       0.35000   0.02581   0.92461   0.0688920000
C          C       0.15296   0.27585   0.94066   0.0691010000
C          C       0.41735   0.01667   0.81025  -0.1695650000
C          C       0.33355   0.48333   0.88932  -0.1707200000
C          C       0.44293   0.14699   0.83916   0.5887410000
C          C       0.44303   0.10495   0.69313   0.5903680000
C          C       0.47420   0.10005   0.67452   0.0663060000
C          C       0.22416   0.40203   0.69088   0.0704100000
C          C       0.48333   0.16873   0.89305  -0.1704360000
C          C       0.01666   0.08327   0.97285  -0.1701110000
C          C       0.19295   0.39637   0.67249   0.5849970000
C          C       0.19276   0.35526   0.86009   0.5873060000
C          C       0.22417   0.34965   0.84242   0.0698030000
C          C       0.47416   0.15282   0.85733   0.0690230000
C          C       0.23333   0.41780   0.72670  -0.1714000000
C          C       0.26666   0.33299   0.80736  -0.1712970000
C          C       0.30705   0.10362   0.67249   0.5854910000
C          C       0.30724   0.14474   0.86010   0.5873250000
C          C       0.27583   0.15035   0.84243   0.0695050000
C          C       0.02583   0.34718   0.85734   0.0687970000
C          C       0.26667   0.08220   0.72670  -0.1714960000
C          C       0.23335   0.16701   0.80736  -0.1711070000
C          C       0.05707   0.35301   0.83916   0.5889460000
C          C       0.05697   0.39505   0.69312   0.5906400000
C          C       0.02579   0.39995   0.67451   0.0660680000
C          C       0.27585   0.09796   0.69088   0.0701740000
C          C       0.01667   0.33127   0.89305  -0.1704650000
C          C       0.48334   0.41673   0.97285  -0.1699980000
H          H       0.14265   0.12503   0.73805   0.4247420000
H          H       0.28257   0.17802   0.78531   0.1586190000
H          H       0.07241   0.46746   0.83300   0.1572880000
H          H       0.39318   0.37508   0.90511   0.4241610000
H          H       0.03257   0.42795   0.95099   0.1581530000
H          H       0.32039   0.21747   0.99874   0.1578140000
H          H       0.10682   0.12493   0.90512   0.4242690000
H          H       0.46743   0.07204   0.95099   0.1581950000
H          H       0.17960   0.28253   0.99874   0.1579290000
H          H       0.35735   0.37495   0.73804   0.4249070000
H          H       0.21744   0.32198   0.78531   0.1587510000
H          H       0.42759   0.03253   0.83301   0.1570380000
H          H       0.37516   0.39310   0.82165   0.4264670000
H          H       0.32261   0.03256   0.86718   0.1580760000
H          H       0.03252   0.32079   0.91563   0.1571080000
H          H       0.12460   0.14267   0.98828   0.4243670000
H          H       0.07095   0.28256   0.70206   0.1586790000
H          H       0.28253   0.07178   0.74933   0.1579580000
H          H       0.37540   0.35733   0.98828   0.4244400000
H          H       0.42905   0.21744   0.70206   0.1587280000
H          H       0.21748   0.42821   0.74933   0.1578080000
H          H       0.12484   0.10690   0.82166   0.4263680000
H          H       0.17739   0.46744   0.86717   0.1580800000
H          H       0.46747   0.17921   0.91562   0.1573210000
H          H       0.14265   0.37495   0.73804   0.4246620000
H          H       0.28257   0.32198   0.78531   0.1586390000
H          H       0.07241   0.03253   0.83301   0.1570300000
H          H       0.39318   0.12493   0.90512   0.4241100000
H          H       0.03257   0.07204   0.95099   0.1581550000
H          H       0.32040   0.28253   0.99874   0.1579430000
H          H       0.10681   0.37509   0.90511   0.4242960000
H          H       0.46743   0.42795   0.95099   0.1581940000
H          H       0.17960   0.21747   0.99874   0.1578380000
H          H       0.35735   0.12504   0.73805   0.4248730000
H          H       0.21744   0.17802   0.78530   0.1586980000
H          H       0.42759   0.46746   0.83300   0.1572340000
H          H       0.37515   0.10690   0.82165   0.4264130000
H          H       0.32261   0.46744   0.86717   0.1581130000
H          H       0.03252   0.17921   0.91563   0.1570130000
H          H       0.12460   0.35733   0.98828   0.4243760000
H          H       0.07095   0.21744   0.70206   0.1587740000
H          H       0.28253   0.42821   0.74933   0.1578230000
H          H       0.37540   0.14267   0.98828   0.4243430000
H          H       0.42905   0.28256   0.70206   0.1587460000
H          H       0.21748   0.07178   0.74934   0.1578820000
H          H       0.12484   0.39310   0.82165   0.4263700000
H          H       0.17739   0.03256   0.86718   0.1580070000
H          H       0.46747   0.32079   0.91562   0.1572380000
Al         Al      0.62442   0.09123   0.68270   1.6720740000
Al         Al      0.87466   0.34149   0.84950   1.6692670000
Al         Al      0.62534   0.15851   0.84950   1.6692970000
Al         Al      0.87558   0.40877   0.68270   1.6720180000
Al         Al      0.90876   0.37467   0.76612   1.6758550000
Al         Al      0.65844   0.12444   0.93282   1.6656760000
Al         Al      0.84156   0.37556   0.93282   1.6657720000
Al         Al      0.59124   0.12533   0.76613   1.6754180000
Al         Al      0.62442   0.40876   0.68270   1.6721170000
Al         Al      0.87466   0.15851   0.84950   1.6692060000
Al         Al      0.62534   0.34149   0.84950   1.6695770000
Al         Al      0.87558   0.09123   0.68270   1.6719530000
Al         Al      0.90876   0.12533   0.76613   1.6754570000
Al         Al      0.65844   0.37556   0.93282   1.6657540000
Al         Al      0.84156   0.12444   0.93282   1.6656680000
Al         Al      0.59124   0.37467   0.76612   1.6756630000
O          O       0.57952   0.40950   0.67504  -0.5805920000
O          O       0.62061   0.05841   0.72310  -0.5702340000
O          O       0.62720   0.37758   0.97458  -1.0044880000
O          O       0.66987   0.09043   0.69155  -0.6018870000
O          O       0.62716   0.05871   0.97540  -0.5639920000
O          O       0.82986   0.15883   0.84164  -0.5785950000
O          O       0.86990   0.30810   0.88960  -0.5661270000
O          O       0.87775   0.12720   0.80809  -1.0085000000
O          O       0.91995   0.33974   0.85833  -0.6009590000
O          O       0.87759   0.30924   0.80863  -0.5641210000
O          O       0.67014   0.34117   0.84164  -0.5785270000
O          O       0.63010   0.19190   0.88960  -0.5660360000
O          O       0.62225   0.37279   0.80809  -1.0087250000
O          O       0.58005   0.16026   0.85833  -0.6010700000
O          O       0.62241   0.19076   0.80863  -0.5644120000
O          O       0.92048   0.09050   0.67504  -0.5804130000
O          O       0.87940   0.44158   0.72310  -0.5700580000
O          O       0.87280   0.12241   0.97458  -1.0045190000
O          O       0.83014   0.40957   0.69155  -0.6017790000
O          O       0.87284   0.44129   0.97539  -0.5641740000
O          O       0.59055   0.32980   0.75823  -0.5803330000
O          O       0.94163   0.37002   0.80646  -0.5701580000
O          O       0.62232   0.37768   0.72461  -1.0074630000
O          O       0.90972   0.42005   0.77502  -0.6010150000
O          O       0.94125   0.37773   0.72555  -0.5647880000
O          O       0.84109   0.07961   0.92503  -0.5800050000
O          O       0.69185   0.12050   0.97295  -0.5655990000
O          O       0.87292   0.12733   0.89140  -1.0036240000
O          O       0.66014   0.16983   0.94153  -0.6008560000
O          O       0.69069   0.12700   0.89207  -0.5633770000
O          O       0.65891   0.42040   0.92503  -0.5799990000
O          O       0.80815   0.37950   0.97295  -0.5655550000
O          O       0.62709   0.37267   0.89140  -1.0038420000
O          O       0.83986   0.33017   0.94153  -0.6007790000
O          O       0.80931   0.37300   0.89207  -0.5633100000
O          O       0.90945   0.17020   0.75823  -0.5802210000
O          O       0.55836   0.12998   0.80647  -0.5699250000
O          O       0.87769   0.12231   0.72461  -1.0076240000
O          O       0.59028   0.07994   0.77503  -0.6006930000
O          O       0.55875   0.12226   0.72555  -0.5645070000
O          O       0.57952   0.09050   0.67504  -0.5805050000
O          O       0.62061   0.44158   0.72310  -0.5701460000
O          O       0.62720   0.12241   0.97458  -1.0044700000
O          O       0.66987   0.40957   0.69155  -0.6017120000
O          O       0.62716   0.44129   0.97539  -0.5638610000
O          O       0.82986   0.34117   0.84164  -0.5785590000
O          O       0.86990   0.19190   0.88960  -0.5662120000
O          O       0.87775   0.37279   0.80809  -1.0087100000
O          O       0.91995   0.16026   0.85833  -0.6009550000
O          O       0.87759   0.19075   0.80863  -0.5640870000
O          O       0.67014   0.15883   0.84164  -0.5785300000
O          O       0.63010   0.30810   0.88960  -0.5659510000
O          O       0.62225   0.12720   0.80809  -1.0085080000
O          O       0.58005   0.33974   0.85834  -0.6011180000
O          O       0.62241   0.30924   0.80863  -0.5644010000
O          O       0.92048   0.40950   0.67504  -0.5804490000
O          O       0.87940   0.05841   0.72310  -0.5699980000
O          O       0.87281   0.37758   0.97458  -1.0046540000
O          O       0.83014   0.09043   0.69155  -0.6019160000
O          O       0.87284   0.05871   0.97540  -0.5639600000
O          O       0.59055   0.17020   0.75823  -0.5801260000
O          O       0.94164   0.12997   0.80647  -0.5700630000
O          O       0.62232   0.12231   0.72461  -1.0075690000
O          O       0.90972   0.07994   0.77503  -0.6007170000
O          O       0.94125   0.12226   0.72555  -0.5646320000
O          O       0.84110   0.42040   0.92503  -0.5798860000
O          O       0.69185   0.37950   0.97295  -0.5656190000
O          O       0.87292   0.37267   0.89140  -1.0037120000
O          O       0.66014   0.33017   0.94153  -0.6008020000
O          O       0.69069   0.37300   0.89207  -0.5634340000
O          O       0.65890   0.07961   0.92503  -0.5801660000
O          O       0.80815   0.12050   0.97295  -0.5657040000
O          O       0.62709   0.12733   0.89140  -1.0037310000
O          O       0.83986   0.16983   0.94154  -0.6007680000
O          O       0.80931   0.12700   0.89207  -0.5632640000
O          O       0.90945   0.32980   0.75823  -0.5805050000
O          O       0.55836   0.37002   0.80647  -0.5700330000
O          O       0.87769   0.37768   0.72461  -1.0076740000
O          O       0.59028   0.42005   0.77502  -0.6008710000
O          O       0.55875   0.37773   0.72555  -0.5647040000
O          O       0.63956   0.00000   0.94612  -0.0667180000
O          O       0.88917   0.25000   0.77930  -0.0693820000
O          O       0.61083   0.25000   0.77930  -0.0695240000
O          O       0.86044   0.00000   0.94612  -0.0667700000
O          O       0.50000   0.38914   0.69584  -0.0631210000
O          O       0.75000   0.36023   0.86402  -0.0660770000
O          O       0.50000   0.11086   0.69584  -0.0632130000
O          O       0.75000   0.13977   0.86403  -0.0658120000
O          O       0.85717   0.25000   0.91884  -0.0636220000
O          O       0.60800  -0.00000   0.75216  -0.0618830000
O          O       0.89201  -0.00000   0.75216  -0.0617380000
O          O       0.64284   0.25000   0.91884  -0.0634730000
O          O       0.75000   0.10794   0.66891  -0.0651900000
O          O       0.50000   0.14279   0.83544  -0.0636450000
O          O       0.75000   0.39206   0.66891  -0.0651260000
O          O       0.50000   0.35721   0.83544  -0.0635390000
C          C       0.60368   0.05704   0.75590   0.5884530000
C          C       0.64467   0.05695   0.94314   0.5912540000
C          C       0.65000   0.02581   0.92461   0.0688290000
C          C       0.84703   0.27585   0.94066   0.0690900000
C          C       0.58265   0.01667   0.81025  -0.1695040000
C          C       0.66646   0.48333   0.88932  -0.1706500000
C          C       0.85296   0.30705   0.92240   0.5847350000
C          C       0.89508   0.30722   0.77641   0.5895420000
C          C       0.90026   0.27585   0.75822   0.0701680000
C          C       0.59818   0.02583   0.77424   0.0673360000
C          C       0.83098   0.26667   0.97625  -0.1711000000
C          C       0.91752   0.23333   0.72366  -0.1715730000
C          C       0.64704   0.19295   0.92241   0.5847840000
C          C       0.60493   0.19278   0.77641   0.5893440000
C          C       0.59974   0.22414   0.75822   0.0703160000
C          C       0.90182   0.47417   0.77424   0.0674690000
C          C       0.66902   0.23332   0.97625  -0.1709430000
C          C       0.58248   0.26666   0.72366  -0.1714340000
C          C       0.89632   0.44295   0.75589   0.5886500000
C          C       0.85533   0.44305   0.94314   0.5910980000
C          C       0.85000   0.47419   0.92461   0.0687700000
C          C       0.65297   0.22415   0.94066   0.0690390000
C          C       0.91735   0.48333   0.81024  -0.1703490000
C          C       0.83355   0.01667   0.88932  -0.1705010000
C          C       0.94294   0.35301   0.83916   0.5887240000
C          C       0.94303   0.39505   0.69312   0.5905550000
C          C       0.97420   0.39995   0.67451   0.0660910000
C          C       0.72415   0.09796   0.69088   0.0704290000
C          C       0.98333   0.33127   0.89305  -0.1701250000
C          C       0.51666   0.41673   0.97285  -0.1699910000
C          C       0.69295   0.10362   0.67249   0.5853220000
C          C       0.69276   0.14474   0.86010   0.5872860000
C          C       0.72417   0.15035   0.84243   0.0696560000
C          C       0.97417   0.34718   0.85734   0.0688060000
C          C       0.73333   0.08220   0.72670  -0.1714930000
C          C       0.76666   0.16701   0.80736  -0.1712890000
C          C       0.80706   0.39637   0.67249   0.5852150000
C          C       0.80724   0.35526   0.86010   0.5873230000
C          C       0.77583   0.34965   0.84242   0.0696690000
C          C       0.52584   0.15282   0.85734   0.0689370000
C          C       0.76668   0.41780   0.72670  -0.1714880000
C          C       0.73335   0.33298   0.80736  -0.1712080000
C          C       0.55707   0.14699   0.83916   0.5887220000
C          C       0.55697   0.10495   0.69313   0.5903750000
C          C       0.52580   0.10005   0.67452   0.0662690000
C          C       0.77585   0.40203   0.69088   0.0703250000
C          C       0.51667   0.16873   0.89305  -0.1703180000
C          C       0.98334   0.08327   0.97285  -0.1700230000
C          C       0.60368   0.44295   0.75589   0.5886000000
C          C       0.64468   0.44305   0.94314   0.5909880000
C          C       0.65000   0.47419   0.92461   0.0687060000
C          C       0.84703   0.22415   0.94066   0.0690780000
C          C       0.58265   0.48333   0.81024  -0.1702660000
C          C       0.66645   0.01667   0.88932  -0.1705970000
C          C       0.85296   0.19295   0.92241   0.5848170000
C          C       0.89508   0.19278   0.77641   0.5890470000
C          C       0.90026   0.22414   0.75822   0.0703530000
C          C       0.59818   0.47417   0.77424   0.0674130000
C          C       0.83098   0.23332   0.97625  -0.1707800000
C          C       0.91752   0.26666   0.72366  -0.1717200000
C          C       0.64704   0.30705   0.92240   0.5845790000
C          C       0.60493   0.30722   0.77641   0.5896170000
C          C       0.59974   0.27586   0.75822   0.0699380000
C          C       0.90182   0.02582   0.77424   0.0673890000
C          C       0.66902   0.26667   0.97625  -0.1711100000
C          C       0.58248   0.23333   0.72366  -0.1716070000
C          C       0.89632   0.05704   0.75590   0.5882200000
C          C       0.85533   0.05695   0.94314   0.5910400000
C          C       0.85000   0.02581   0.92461   0.0688920000
C          C       0.65297   0.27585   0.94066   0.0691010000
C          C       0.91735   0.01667   0.81025  -0.1695650000
C          C       0.83355   0.48333   0.88932  -0.1707200000
C          C       0.94294   0.14699   0.83916   0.5887410000
C          C       0.94303   0.10495   0.69313   0.5903680000
C          C       0.97420   0.10005   0.67452   0.0663060000
C          C       0.72415   0.40203   0.69088   0.0704100000
C          C       0.98333   0.16873   0.89305  -0.1704360000
C          C       0.51666   0.08327   0.97285  -0.1701110000
C          C       0.69295   0.39637   0.67249   0.5849970000
C          C       0.69276   0.35526   0.86009   0.5873060000
C          C       0.72417   0.34965   0.84242   0.0698030000
C          C       0.97417   0.15282   0.85733   0.0690230000
C          C       0.73333   0.41780   0.72670  -0.1714000000
C          C       0.76666   0.33299   0.80736  -0.1712970000
C          C       0.80705   0.10362   0.67249   0.5854910000
C          C       0.80724   0.14474   0.86010   0.5873250000
C          C       0.77583   0.15035   0.84243   0.0695050000
C          C       0.52583   0.34718   0.85734   0.0687970000
C          C       0.76667   0.08220   0.72670  -0.1714960000
C          C       0.73335   0.16701   0.80736  -0.1711070000
C          C       0.55707   0.35301   0.83916   0.5889460000
C          C       0.55697   0.39505   0.69312   0.5906400000
C          C       0.52580   0.39995   0.67451   0.0660680000
C          C       0.77585   0.09796   0.69088   0.0701740000
C          C       0.51667   0.33127   0.89305  -0.1704650000
C          C       0.98334   0.41673   0.97285  -0.1699980000
H          H       0.64265   0.12503   0.73805   0.4247420000
H          H       0.78257   0.17802   0.78531   0.1586190000
H          H       0.57241   0.46746   0.83300   0.1572880000
H          H       0.89318   0.37508   0.90511   0.4241610000
H          H       0.53257   0.42795   0.95099   0.1581530000
H          H       0.82039   0.21747   0.99874   0.1578140000
H          H       0.60682   0.12493   0.90512   0.4242690000
H          H       0.96743   0.07204   0.95099   0.1581950000
H          H       0.67960   0.28253   0.99874   0.1579290000
H          H       0.85735   0.37495   0.73804   0.4249070000
H          H       0.71744   0.32198   0.78531   0.1587510000
H          H       0.92759   0.03253   0.83301   0.1570380000
H          H       0.87516   0.39310   0.82165   0.4264670000
H          H       0.82262   0.03256   0.86718   0.1580760000
H          H       0.53252   0.32079   0.91563   0.1571080000
H          H       0.62461   0.14267   0.98828   0.4243670000
H          H       0.57095   0.28256   0.70206   0.1586790000
H          H       0.78253   0.07178   0.74933   0.1579580000
H          H       0.87540   0.35733   0.98828   0.4244400000
H          H       0.92905   0.21744   0.70206   0.1587280000
H          H       0.71748   0.42821   0.74933   0.1578080000
H          H       0.62485   0.10690   0.82166   0.4263680000
H          H       0.67739   0.46744   0.86717   0.1580800000
H          H       0.96747   0.17921   0.91562   0.1573210000
H          H       0.64265   0.37495   0.73804   0.4246620000
H          H       0.78257   0.32198   0.78531   0.1586390000
H          H       0.57241   0.03253   0.83301   0.1570300000
H          H       0.89318   0.12493   0.90512   0.4241100000
H          H       0.53257   0.07204   0.95099   0.1581550000
H          H       0.82040   0.28253   0.99874   0.1579430000
H          H       0.60682   0.37509   0.90511   0.4242960000
H          H       0.96743   0.42795   0.95099   0.1581940000
H          H       0.67961   0.21747   0.99874   0.1578380000
H          H       0.85735   0.12504   0.73805   0.4248730000
H          H       0.71744   0.17802   0.78530   0.1586980000
H          H       0.92759   0.46746   0.83300   0.1572340000
H          H       0.87515   0.10690   0.82165   0.4264130000
H          H       0.82261   0.46744   0.86717   0.1581130000
H          H       0.53253   0.17921   0.91563   0.1570130000
H          H       0.62461   0.35733   0.98828   0.4243760000
H          H       0.57095   0.21744   0.70206   0.1587740000
H          H       0.78253   0.42821   0.74933   0.1578230000
H          H       0.87540   0.14267   0.98828   0.4243430000
H          H       0.92905   0.28256   0.70206   0.1587460000
H          H       0.71748   0.07178   0.74934   0.1578820000
H          H       0.62484   0.39310   0.82165   0.4263700000
H          H       0.67739   0.03256   0.86718   0.1580070000
H          H       0.96747   0.32079   0.91562   0.1572380000
Al         Al      0.12442   0.59123   0.68270   1.6720740000
Al         Al      0.37466   0.84149   0.84950   1.6692670000
Al         Al      0.12534   0.65851   0.84950   1.6692970000
Al         Al      0.37558   0.90877   0.68270   1.6720180000
Al         Al      0.40876   0.87467   0.76612   1.6758550000
Al         Al      0.15844   0.62444   0.93282   1.6656760000
Al         Al      0.34156   0.87556   0.93282   1.6657720000
Al         Al      0.09123   0.62533   0.76613   1.6754180000
Al         Al      0.12442   0.90877   0.68270   1.6721170000
Al         Al      0.37466   0.65851   0.84950   1.6692060000
Al         Al      0.12534   0.84149   0.84950   1.6695770000
Al         Al      0.37558   0.59123   0.68270   1.6719530000
Al         Al      0.40876   0.62533   0.76613   1.6754570000
Al         Al      0.15844   0.87556   0.93282   1.6657540000
Al         Al      0.34156   0.62444   0.93282   1.6656680000
Al         Al      0.09123   0.87467   0.76612   1.6756630000
O          O       0.07952   0.90950   0.67504  -0.5805920000
O          O       0.12060   0.55841   0.72310  -0.5702340000
O          O       0.12719   0.87759   0.97458  -1.0044880000
O          O       0.16986   0.59042   0.69155  -0.6018870000
O          O       0.12716   0.55871   0.97540  -0.5639920000
O          O       0.32986   0.65883   0.84164  -0.5785950000
O          O       0.36990   0.80810   0.88960  -0.5661270000
O          O       0.37775   0.62720   0.80809  -1.0085000000
O          O       0.41995   0.83974   0.85833  -0.6009590000
O          O       0.37759   0.80925   0.80863  -0.5641210000
O          O       0.17014   0.84117   0.84164  -0.5785270000
O          O       0.13010   0.69190   0.88960  -0.5660360000
O          O       0.12224   0.87280   0.80809  -1.0087250000
O          O       0.08005   0.66027   0.85833  -0.6010700000
O          O       0.12241   0.69076   0.80863  -0.5644120000
O          O       0.42048   0.59050   0.67504  -0.5804130000
O          O       0.37939   0.94159   0.72310  -0.5700580000
O          O       0.37280   0.62242   0.97458  -1.0045190000
O          O       0.33014   0.90957   0.69155  -0.6017790000
O          O       0.37284   0.94129   0.97539  -0.5641740000
O          O       0.09055   0.82980   0.75823  -0.5803330000
O          O       0.44163   0.87003   0.80646  -0.5701580000
O          O       0.12231   0.87768   0.72461  -1.0074630000
O          O       0.40972   0.92005   0.77502  -0.6010150000
O          O       0.44125   0.87774   0.72555  -0.5647880000
O          O       0.34109   0.57961   0.92503  -0.5800050000
O          O       0.19185   0.62050   0.97295  -0.5655990000
O          O       0.37291   0.62733   0.89140  -1.0036240000
O          O       0.16013   0.66983   0.94153  -0.6008560000
O          O       0.19069   0.62700   0.89207  -0.5633770000
O          O       0.15890   0.92040   0.92503  -0.5799990000
O          O       0.30815   0.87950   0.97295  -0.5655550000
O          O       0.12708   0.87267   0.89140  -1.0038420000
O          O       0.33986   0.83018   0.94153  -0.6007790000
O          O       0.30931   0.87300   0.89207  -0.5633100000
O          O       0.40945   0.67019   0.75823  -0.5802210000
O          O       0.05836   0.62998   0.80647  -0.5699250000
O          O       0.37768   0.62231   0.72461  -1.0076240000
O          O       0.09028   0.57994   0.77503  -0.6006930000
O          O       0.05874   0.62227   0.72555  -0.5645070000
O          O       0.07952   0.59050   0.67504  -0.5805050000
O          O       0.12060   0.94159   0.72310  -0.5701460000
O          O       0.12719   0.62242   0.97458  -1.0044700000
O          O       0.16986   0.90957   0.69155  -0.6017120000
O          O       0.12716   0.94129   0.97539  -0.5638610000
O          O       0.32986   0.84117   0.84164  -0.5785590000
O          O       0.36990   0.69190   0.88960  -0.5662120000
O          O       0.37775   0.87280   0.80809  -1.0087100000
O          O       0.41995   0.66026   0.85833  -0.6009550000
O          O       0.37759   0.69075   0.80863  -0.5640870000
O          O       0.17014   0.65883   0.84164  -0.5785300000
O          O       0.13010   0.80810   0.88960  -0.5659510000
O          O       0.12225   0.62720   0.80809  -1.0085080000
O          O       0.08005   0.83974   0.85834  -0.6011180000
O          O       0.12241   0.80925   0.80863  -0.5644010000
O          O       0.42048   0.90950   0.67504  -0.5804490000
O          O       0.37939   0.55841   0.72310  -0.5699980000
O          O       0.37281   0.87759   0.97458  -1.0046540000
O          O       0.33014   0.59042   0.69155  -0.6019160000
O          O       0.37284   0.55871   0.97540  -0.5639600000
O          O       0.09055   0.67020   0.75823  -0.5801260000
O          O       0.44164   0.62997   0.80647  -0.5700630000
O          O       0.12231   0.62231   0.72461  -1.0075690000
O          O       0.40972   0.57994   0.77503  -0.6007170000
O          O       0.44125   0.62227   0.72555  -0.5646320000
O          O       0.34109   0.92040   0.92503  -0.5798860000
O          O       0.19185   0.87950   0.97295  -0.5656190000
O          O       0.37291   0.87267   0.89140  -1.0037120000
O          O       0.16013   0.83018   0.94153  -0.6008020000
O          O       0.19069   0.87300   0.89207  -0.5634340000
O          O       0.15890   0.57961   0.92503  -0.5801660000
O          O       0.30815   0.62050   0.97295  -0.5657040000
O          O       0.12709   0.62733   0.89140  -1.0037310000
O          O       0.33986   0.66983   0.94154  -0.6007680000
O          O       0.30931   0.62700   0.89207  -0.5632640000
O          O       0.40945   0.82980   0.75823  -0.5805050000
O          O       0.05836   0.87003   0.80647  -0.5700330000
O          O       0.37768   0.87768   0.72461  -1.0076740000
O          O       0.09028   0.92005   0.77502  -0.6008710000
O          O       0.05874   0.87774   0.72555  -0.5647040000
O          O       0.13956   0.50000   0.94612  -0.0667180000
O          O       0.38917   0.74999   0.77930  -0.0693820000
O          O       0.11082   0.74999   0.77930  -0.0695240000
O          O       0.36044   0.50000   0.94612  -0.0667700000
O          O       0.00000   0.88914   0.69584  -0.0631210000
O          O       0.25000   0.86023   0.86402  -0.0660770000
O          O       0.00000   0.61086   0.69584  -0.0632130000
O          O       0.25000   0.63977   0.86403  -0.0658120000
O          O       0.35717   0.75000   0.91884  -0.0636220000
O          O       0.10799   0.49999   0.75216  -0.0618830000
O          O       0.39200   0.49999   0.75216  -0.0617380000
O          O       0.14283   0.75000   0.91884  -0.0634730000
O          O       0.25000   0.60794   0.66891  -0.0651900000
O          O       0.00000   0.64279   0.83544  -0.0636450000
O          O       0.25000   0.89206   0.66891  -0.0651260000
O          O       0.00000   0.85721   0.83544  -0.0635390000
C          C       0.10368   0.55705   0.75590   0.5884530000
C          C       0.14467   0.55696   0.94314   0.5912540000
C          C       0.15000   0.52581   0.92461   0.0688290000
C          C       0.34703   0.77585   0.94066   0.0690900000
C          C       0.08265   0.51667   0.81025  -0.1695040000
C          C       0.16645   0.98334   0.88932  -0.1706500000
C          C       0.35296   0.80705   0.92240   0.5847350000
C          C       0.39507   0.80722   0.77641   0.5895420000
C          C       0.40026   0.77585   0.75822   0.0701680000
C          C       0.09817   0.52582   0.77424   0.0673360000
C          C       0.33098   0.76668   0.97625  -0.1711000000
C          C       0.41752   0.73333   0.72366  -0.1715730000
C          C       0.14704   0.69295   0.92241   0.5847840000
C          C       0.10492   0.69278   0.77641   0.5893440000
C          C       0.09974   0.72414   0.75822   0.0703160000
C          C       0.40182   0.97417   0.77424   0.0674690000
C          C       0.16901   0.73333   0.97625  -0.1709430000
C          C       0.08248   0.76666   0.72366  -0.1714340000
C          C       0.39632   0.94295   0.75589   0.5886500000
C          C       0.35533   0.94305   0.94314   0.5910980000
C          C       0.35000   0.97419   0.92461   0.0687700000
C          C       0.15296   0.72415   0.94066   0.0690390000
C          C       0.41735   0.98333   0.81024  -0.1703490000
C          C       0.33355   0.51667   0.88932  -0.1705010000
C          C       0.44293   0.85301   0.83916   0.5887240000
C          C       0.44303   0.89505   0.69312   0.5905550000
C          C       0.47420   0.89995   0.67451   0.0660910000
C          C       0.22416   0.59797   0.69088   0.0704290000
C          C       0.48333   0.83127   0.89305  -0.1701250000
C          C       0.01666   0.91673   0.97285  -0.1699910000
C          C       0.19295   0.60363   0.67249   0.5853220000
C          C       0.19276   0.64474   0.86010   0.5872860000
C          C       0.22417   0.65035   0.84243   0.0696560000
C          C       0.47416   0.84718   0.85734   0.0688060000
C          C       0.23333   0.58220   0.72670  -0.1714930000
C          C       0.26666   0.66701   0.80736  -0.1712890000
C          C       0.30706   0.89637   0.67249   0.5852150000
C          C       0.30724   0.85527   0.86010   0.5873230000
C          C       0.27583   0.84966   0.84242   0.0696690000
C          C       0.02584   0.65282   0.85734   0.0689370000
C          C       0.26667   0.91780   0.72670  -0.1714880000
C          C       0.23334   0.83299   0.80736  -0.1712080000
C          C       0.05707   0.64699   0.83916   0.5887220000
C          C       0.05697   0.60495   0.69313   0.5903750000
C          C       0.02579   0.60005   0.67452   0.0662690000
C          C       0.27585   0.90204   0.69088   0.0703250000
C          C       0.01667   0.66873   0.89305  -0.1703180000
C          C       0.48334   0.58327   0.97285  -0.1700230000
C          C       0.10368   0.94295   0.75589   0.5886000000
C          C       0.14467   0.94305   0.94314   0.5909880000
C          C       0.15000   0.97419   0.92461   0.0687060000
C          C       0.34703   0.72415   0.94066   0.0690780000
C          C       0.08265   0.98333   0.81024  -0.1702660000
C          C       0.16645   0.51667   0.88932  -0.1705970000
C          C       0.35296   0.69295   0.92241   0.5848170000
C          C       0.39507   0.69278   0.77641   0.5890470000
C          C       0.40026   0.72414   0.75822   0.0703530000
C          C       0.09818   0.97417   0.77424   0.0674130000
C          C       0.33098   0.73333   0.97625  -0.1707800000
C          C       0.41752   0.76666   0.72366  -0.1717200000
C          C       0.14704   0.80705   0.92240   0.5845790000
C          C       0.10492   0.80722   0.77641   0.5896170000
C          C       0.09974   0.77585   0.75822   0.0699380000
C          C       0.40182   0.52582   0.77424   0.0673890000
C          C       0.16901   0.76668   0.97625  -0.1711100000
C          C       0.08248   0.73333   0.72366  -0.1716070000
C          C       0.39632   0.55705   0.75590   0.5882200000
C          C       0.35533   0.55696   0.94314   0.5910400000
C          C       0.35000   0.52581   0.92461   0.0688920000
C          C       0.15296   0.77585   0.94066   0.0691010000
C          C       0.41735   0.51667   0.81025  -0.1695650000
C          C       0.33355   0.98334   0.88932  -0.1707200000
C          C       0.44293   0.64699   0.83916   0.5887410000
C          C       0.44303   0.60495   0.69313   0.5903680000
C          C       0.47420   0.60005   0.67452   0.0663060000
C          C       0.22416   0.90204   0.69088   0.0704100000
C          C       0.48333   0.66873   0.89305  -0.1704360000
C          C       0.01666   0.58327   0.97285  -0.1701110000
C          C       0.19295   0.89637   0.67249   0.5849970000
C          C       0.19276   0.85527   0.86009   0.5873060000
C          C       0.22417   0.84966   0.84242   0.0698030000
C          C       0.47416   0.65282   0.85733   0.0690230000
C          C       0.23333   0.91780   0.72670  -0.1714000000
C          C       0.26666   0.83299   0.80736  -0.1712970000
C          C       0.30705   0.60363   0.67249   0.5854910000
C          C       0.30724   0.64474   0.86010   0.5873250000
C          C       0.27583   0.65035   0.84243   0.0695050000
C          C       0.02583   0.84718   0.85734   0.0687970000
C          C       0.26667   0.58220   0.72670  -0.1714960000
C          C       0.23335   0.66701   0.80736  -0.1711070000
C          C       0.05706   0.85301   0.83916   0.5889460000
C          C       0.05696   0.89505   0.69312   0.5906400000
C          C       0.02579   0.89995   0.67451   0.0660680000
C          C       0.27585   0.59797   0.69088   0.0701740000
C          C       0.01667   0.83127   0.89305  -0.1704650000
C          C       0.48334   0.91673   0.97285  -0.1699980000
H          H       0.14265   0.62503   0.73805   0.4247420000
H          H       0.28257   0.67802   0.78531   0.1586190000
H          H       0.07241   0.96746   0.83300   0.1572880000
H          H       0.39318   0.87508   0.90511   0.4241610000
H          H       0.03257   0.92795   0.95099   0.1581530000
H          H       0.32039   0.71747   0.99874   0.1578140000
H          H       0.10682   0.62493   0.90512   0.4242690000
H          H       0.46743   0.57204   0.95099   0.1581950000
H          H       0.17960   0.78253   0.99874   0.1579290000
H          H       0.35735   0.87496   0.73804   0.4249070000
H          H       0.21744   0.82198   0.78531   0.1587510000
H          H       0.42759   0.53253   0.83301   0.1570380000
H          H       0.37516   0.89310   0.82165   0.4264670000
H          H       0.32261   0.53256   0.86718   0.1580760000
H          H       0.03252   0.82079   0.91563   0.1571080000
H          H       0.12460   0.64268   0.98828   0.4243670000
H          H       0.07095   0.78256   0.70206   0.1586790000
H          H       0.28253   0.57178   0.74933   0.1579580000
H          H       0.37539   0.85733   0.98828   0.4244400000
H          H       0.42905   0.71744   0.70206   0.1587280000
H          H       0.21748   0.92822   0.74933   0.1578080000
H          H       0.12484   0.60690   0.82166   0.4263680000
H          H       0.17739   0.96744   0.86717   0.1580800000
H          H       0.46747   0.67921   0.91562   0.1573210000
H          H       0.14265   0.87496   0.73804   0.4246620000
H          H       0.28257   0.82198   0.78531   0.1586390000
H          H       0.07241   0.53253   0.83301   0.1570300000
H          H       0.39318   0.62493   0.90512   0.4241100000
H          H       0.03257   0.57204   0.95099   0.1581550000
H          H       0.32040   0.78253   0.99874   0.1579430000
H          H       0.10681   0.87509   0.90511   0.4242960000
H          H       0.46743   0.92795   0.95099   0.1581940000
H          H       0.17960   0.71747   0.99874   0.1578380000
H          H       0.35735   0.62504   0.73805   0.4248730000
H          H       0.21744   0.67802   0.78530   0.1586980000
H          H       0.42759   0.96746   0.83300   0.1572340000
H          H       0.37515   0.60690   0.82165   0.4264130000
H          H       0.32261   0.96744   0.86717   0.1581130000
H          H       0.03252   0.67921   0.91563   0.1570130000
H          H       0.12460   0.85733   0.98828   0.4243760000
H          H       0.07095   0.71744   0.70206   0.1587740000
H          H       0.28253   0.92822   0.74933   0.1578230000
H          H       0.37540   0.64268   0.98828   0.4243430000
H          H       0.42905   0.78256   0.70206   0.1587460000
H          H       0.21748   0.57178   0.74934   0.1578820000
H          H       0.12484   0.89310   0.82165   0.4263700000
H          H       0.17739   0.53256   0.86718   0.1580070000
H          H       0.46747   0.82079   0.91562   0.1572380000
Al         Al      0.62442   0.59123   0.68270   1.6720740000
Al         Al      0.87466   0.84149   0.84950   1.6692670000
Al         Al      0.62534   0.65851   0.84950   1.6692970000
Al         Al      0.87558   0.90877   0.68270   1.6720180000
Al         Al      0.90876   0.87467   0.76612   1.6758550000
Al         Al      0.65844   0.62444   0.93282   1.6656760000
Al         Al      0.84156   0.87556   0.93282   1.6657720000
Al         Al      0.59124   0.62533   0.76613   1.6754180000
Al         Al      0.62442   0.90877   0.68270   1.6721170000
Al         Al      0.87466   0.65851   0.84950   1.6692060000
Al         Al      0.62534   0.84149   0.84950   1.6695770000
Al         Al      0.87558   0.59123   0.68270   1.6719530000
Al         Al      0.90876   0.62533   0.76613   1.6754570000
Al         Al      0.65844   0.87556   0.93282   1.6657540000
Al         Al      0.84156   0.62444   0.93282   1.6656680000
Al         Al      0.59124   0.87467   0.76612   1.6756630000
O          O       0.57951   0.90950   0.67504  -0.5805920000
O          O       0.62061   0.55841   0.72310  -0.5702340000
O          O       0.62720   0.87759   0.97458  -1.0044880000
O          O       0.66987   0.59042   0.69155  -0.6018870000
O          O       0.62716   0.55871   0.97540  -0.5639920000
O          O       0.82986   0.65883   0.84164  -0.5785950000
O          O       0.86990   0.80810   0.88960  -0.5661270000
O          O       0.87775   0.62720   0.80809  -1.0085000000
O          O       0.91995   0.83974   0.85833  -0.6009590000
O          O       0.87759   0.80925   0.80863  -0.5641210000
O          O       0.67014   0.84117   0.84164  -0.5785270000
O          O       0.63010   0.69190   0.88960  -0.5660360000
O          O       0.62225   0.87280   0.80809  -1.0087250000
O          O       0.58005   0.66027   0.85833  -0.6010700000
O          O       0.62241   0.69076   0.80863  -0.5644120000
O          O       0.92048   0.59050   0.67504  -0.5804130000
O          O       0.87939   0.94159   0.72310  -0.5700580000
O          O       0.87280   0.62242   0.97458  -1.0045190000
O          O       0.83013   0.90957   0.69155  -0.6017790000
O          O       0.87284   0.94129   0.97539  -0.5641740000
O          O       0.59055   0.82980   0.75823  -0.5803330000
O          O       0.94163   0.87003   0.80646  -0.5701580000
O          O       0.62232   0.87768   0.72461  -1.0074630000
O          O       0.90972   0.92005   0.77502  -0.6010150000
O          O       0.94125   0.87774   0.72555  -0.5647880000
O          O       0.84109   0.57961   0.92503  -0.5800050000
O          O       0.69185   0.62050   0.97295  -0.5655990000
O          O       0.87292   0.62733   0.89140  -1.0036240000
O          O       0.66014   0.66983   0.94153  -0.6008560000
O          O       0.69069   0.62700   0.89207  -0.5633770000
O          O       0.65890   0.92040   0.92503  -0.5799990000
O          O       0.80815   0.87950   0.97295  -0.5655550000
O          O       0.62709   0.87267   0.89140  -1.0038420000
O          O       0.83986   0.83018   0.94153  -0.6007790000
O          O       0.80931   0.87300   0.89207  -0.5633100000
O          O       0.90945   0.67019   0.75823  -0.5802210000
O          O       0.55836   0.62998   0.80647  -0.5699250000
O          O       0.87769   0.62231   0.72461  -1.0076240000
O          O       0.59028   0.57994   0.77503  -0.6006930000
O          O       0.55875   0.62227   0.72555  -0.5645070000
O          O       0.57952   0.59050   0.67504  -0.5805050000
O          O       0.62060   0.94159   0.72310  -0.5701460000
O          O       0.62720   0.62242   0.97458  -1.0044700000
O          O       0.66986   0.90957   0.69155  -0.6017120000
O          O       0.62716   0.94129   0.97539  -0.5638610000
O          O       0.82986   0.84117   0.84164  -0.5785590000
O          O       0.86990   0.69190   0.88960  -0.5662120000
O          O       0.87775   0.87280   0.80809  -1.0087100000
O          O       0.91995   0.66026   0.85833  -0.6009550000
O          O       0.87759   0.69075   0.80863  -0.5640870000
O          O       0.67014   0.65883   0.84164  -0.5785300000
O          O       0.63010   0.80810   0.88960  -0.5659510000
O          O       0.62225   0.62720   0.80809  -1.0085080000
O          O       0.58005   0.83974   0.85834  -0.6011180000
O          O       0.62241   0.80925   0.80863  -0.5644010000
O          O       0.92048   0.90950   0.67504  -0.5804490000
O          O       0.87940   0.55841   0.72310  -0.5699980000
O          O       0.87281   0.87759   0.97458  -1.0046540000
O          O       0.83014   0.59042   0.69155  -0.6019160000
O          O       0.87284   0.55871   0.97540  -0.5639600000
O          O       0.59055   0.67020   0.75823  -0.5801260000
O          O       0.94164   0.62997   0.80647  -0.5700630000
O          O       0.62232   0.62231   0.72461  -1.0075690000
O          O       0.90972   0.57994   0.77503  -0.6007170000
O          O       0.94125   0.62227   0.72555  -0.5646320000
O          O       0.84110   0.92040   0.92503  -0.5798860000
O          O       0.69185   0.87950   0.97295  -0.5656190000
O          O       0.87292   0.87267   0.89140  -1.0037120000
O          O       0.66014   0.83018   0.94153  -0.6008020000
O          O       0.69069   0.87300   0.89207  -0.5634340000
O          O       0.65890   0.57961   0.92503  -0.5801660000
O          O       0.80815   0.62050   0.97295  -0.5657040000
O          O       0.62709   0.62733   0.89140  -1.0037310000
O          O       0.83986   0.66983   0.94154  -0.6007680000
O          O       0.80931   0.62700   0.89207  -0.5632640000
O          O       0.90945   0.82980   0.75823  -0.5805050000
O          O       0.55836   0.87003   0.80647  -0.5700330000
O          O       0.87769   0.87768   0.72461  -1.0076740000
O          O       0.59028   0.92005   0.77502  -0.6008710000
O          O       0.55875   0.87774   0.72555  -0.5647040000
O          O       0.63956   0.50000   0.94612  -0.0667180000
O          O       0.88917   0.74999   0.77930  -0.0693820000
O          O       0.61083   0.74999   0.77930  -0.0695240000
O          O       0.86044   0.50000   0.94612  -0.0667700000
O          O       0.50000   0.88914   0.69584  -0.0631210000
O          O       0.75000   0.86023   0.86402  -0.0660770000
O          O       0.50000   0.61086   0.69584  -0.0632130000
O          O       0.75000   0.63977   0.86403  -0.0658120000
O          O       0.85717   0.75000   0.91884  -0.0636220000
O          O       0.60800   0.49999   0.75216  -0.0618830000
O          O       0.89201   0.49999   0.75216  -0.0617380000
O          O       0.64284   0.75000   0.91884  -0.0634730000
O          O       0.75000   0.60794   0.66891  -0.0651900000
O          O       0.50000   0.64279   0.83544  -0.0636450000
O          O       0.75000   0.89206   0.66891  -0.0651260000
O          O       0.50000   0.85721   0.83544  -0.0635390000
C          C       0.60368   0.55705   0.75590   0.5884530000
C          C       0.64467   0.55696   0.94314   0.5912540000
C          C       0.65000   0.52581   0.92461   0.0688290000
C          C       0.84703   0.77585   0.94066   0.0690900000
C          C       0.58265   0.51667   0.81025  -0.1695040000
C          C       0.66645   0.98334   0.88932  -0.1706500000
C          C       0.85296   0.80705   0.92240   0.5847350000
C          C       0.89508   0.80722   0.77641   0.5895420000
C          C       0.90026   0.77585   0.75822   0.0701680000
C          C       0.59818   0.52582   0.77424   0.0673360000
C          C       0.83098   0.76668   0.97625  -0.1711000000
C          C       0.91752   0.73333   0.72366  -0.1715730000
C          C       0.64704   0.69295   0.92241   0.5847840000
C          C       0.60493   0.69278   0.77641   0.5893440000
C          C       0.59974   0.72414   0.75822   0.0703160000
C          C       0.90182   0.97417   0.77424   0.0674690000
C          C       0.66902   0.73333   0.97625  -0.1709430000
C          C       0.58248   0.76666   0.72366  -0.1714340000
C          C       0.89632   0.94295   0.75589   0.5886500000
C          C       0.85532   0.94305   0.94314   0.5910980000
C          C       0.85000   0.97419   0.92461   0.0687700000
C          C       0.65297   0.72415   0.94066   0.0690390000
C          C       0.91735   0.98333   0.81024  -0.1703490000
C          C       0.83355   0.51667   0.88932  -0.1705010000
C          C       0.94294   0.85301   0.83916   0.5887240000
C          C       0.94303   0.89505   0.69312   0.5905550000
C          C       0.97420   0.89995   0.67451   0.0660910000
C          C       0.72415   0.59797   0.69088   0.0704290000
C          C       0.98333   0.83127   0.89305  -0.1701250000
C          C       0.51666   0.91673   0.97285  -0.1699910000
C          C       0.69295   0.60363   0.67249   0.5853220000
C          C       0.69276   0.64474   0.86010   0.5872860000
C          C       0.72417   0.65035   0.84243   0.0696560000
C          C       0.97417   0.84718   0.85734   0.0688060000
C          C       0.73333   0.58220   0.72670  -0.1714930000
C          C       0.76666   0.66701   0.80736  -0.1712890000
C          C       0.80706   0.89637   0.67249   0.5852150000
C          C       0.80724   0.85527   0.86010   0.5873230000
C          C       0.77583   0.84966   0.84242   0.0696690000
C          C       0.52584   0.65282   0.85734   0.0689370000
C          C       0.76667   0.91780   0.72670  -0.1714880000
C          C       0.73335   0.83299   0.80736  -0.1712080000
C          C       0.55707   0.64699   0.83916   0.5887220000
C          C       0.55697   0.60495   0.69313   0.5903750000
C          C       0.52580   0.60005   0.67452   0.0662690000
C          C       0.77585   0.90204   0.69088   0.0703250000
C          C       0.51667   0.66873   0.89305  -0.1703180000
C          C       0.98334   0.58327   0.97285  -0.1700230000
C          C       0.60368   0.94295   0.75589   0.5886000000
C          C       0.64467   0.94305   0.94314   0.5909880000
C          C       0.65000   0.97419   0.92461   0.0687060000
C          C       0.84703   0.72415   0.94066   0.0690780000
C          C       0.58265   0.98333   0.81024  -0.1702660000
C          C       0.66645   0.51667   0.88932  -0.1705970000
C          C       0.85296   0.69295   0.92241   0.5848170000
C          C       0.89508   0.69278   0.77641   0.5890470000
C          C       0.90026   0.72414   0.75822   0.0703530000
C          C       0.59818   0.97417   0.77424   0.0674130000
C          C       0.83098   0.73333   0.97625  -0.1707800000
C          C       0.91752   0.76666   0.72366  -0.1717200000
C          C       0.64704   0.80705   0.92240   0.5845790000
C          C       0.60493   0.80722   0.77641   0.5896170000
C          C       0.59974   0.77585   0.75822   0.0699380000
C          C       0.90182   0.52582   0.77424   0.0673890000
C          C       0.66902   0.76668   0.97625  -0.1711100000
C          C       0.58248   0.73333   0.72366  -0.1716070000
C          C       0.89632   0.55705   0.75590   0.5882200000
C          C       0.85533   0.55696   0.94314   0.5910400000
C          C       0.85000   0.52581   0.92461   0.0688920000
C          C       0.65297   0.77585   0.94066   0.0691010000
C          C       0.91735   0.51667   0.81025  -0.1695650000
C          C       0.83355   0.98334   0.88932  -0.1707200000
C          C       0.94294   0.64699   0.83916   0.5887410000
C          C       0.94303   0.60495   0.69313   0.5903680000
C          C       0.97420   0.60005   0.67452   0.0663060000
C          C       0.72415   0.90204   0.69088   0.0704100000
C          C       0.98333   0.66873   0.89305  -0.1704360000
C          C       0.51666   0.58327   0.97285  -0.1701110000
C          C       0.69295   0.89637   0.67249   0.5849970000
C          C       0.69276   0.85527   0.86009   0.5873060000
C          C       0.72417   0.84966   0.84242   0.0698030000
C          C       0.97417   0.65282   0.85733   0.0690230000
C          C       0.73333   0.91780   0.72670  -0.1714000000
C          C       0.76666   0.83299   0.80736  -0.1712970000
C          C       0.80705   0.60363   0.67249   0.5854910000
C          C       0.80724   0.64474   0.86010   0.5873250000
C          C       0.77583   0.65035   0.84243   0.0695050000
C          C       0.52583   0.84718   0.85734   0.0687970000
C          C       0.76667   0.58220   0.72670  -0.1714960000
C          C       0.73335   0.66701   0.80736  -0.1711070000
C          C       0.55707   0.85301   0.83916   0.5889460000
C          C       0.55697   0.89505   0.69312   0.5906400000
C          C       0.52580   0.89995   0.67451   0.0660680000
C          C       0.77585   0.59797   0.69088   0.0701740000
C          C       0.51667   0.83127   0.89305  -0.1704650000
C          C       0.98334   0.91673   0.97285  -0.1699980000
H          H       0.64265   0.62503   0.73805   0.4247420000
H          H       0.78257   0.67802   0.78531   0.1586190000
H          H       0.57241   0.96746   0.83300   0.1572880000
H          H       0.89318   0.87508   0.90511   0.4241610000
H          H       0.53257   0.92795   0.95099   0.1581530000
H          H       0.82039   0.71747   0.99874   0.1578140000
H          H       0.60682   0.62493   0.90512   0.4242690000
H          H       0.96743   0.57204   0.95099   0.1581950000
H          H       0.67960   0.78253   0.99874   0.1579290000
H          H       0.85735   0.87496   0.73804   0.4249070000
H          H       0.71744   0.82198   0.78531   0.1587510000
H          H       0.92759   0.53253   0.83301   0.1570380000
H          H       0.87516   0.89310   0.82165   0.4264670000
H          H       0.82262   0.53256   0.86718   0.1580760000
H          H       0.53252   0.82079   0.91563   0.1571080000
H          H       0.62461   0.64268   0.98828   0.4243670000
H          H       0.57095   0.78256   0.70206   0.1586790000
H          H       0.78253   0.57178   0.74933   0.1579580000
H          H       0.87540   0.85733   0.98828   0.4244400000
H          H       0.92905   0.71744   0.70206   0.1587280000
H          H       0.71748   0.92822   0.74933   0.1578080000
H          H       0.62485   0.60690   0.82166   0.4263680000
H          H       0.67739   0.96744   0.86717   0.1580800000
H          H       0.96747   0.67921   0.91562   0.1573210000
H          H       0.64265   0.87496   0.73804   0.4246620000
H          H       0.78257   0.82198   0.78531   0.1586390000
H          H       0.57241   0.53253   0.83301   0.1570300000
H          H       0.89318   0.62493   0.90512   0.4241100000
H          H       0.53257   0.57204   0.95099   0.1581550000
H          H       0.82040   0.78253   0.99874   0.1579430000
H          H       0.60682   0.87509   0.90511   0.4242960000
H          H       0.96743   0.92795   0.95099   0.1581940000
H          H       0.67961   0.71747   0.99874   0.1578380000
H          H       0.85735   0.62504   0.73805   0.4248730000
H          H       0.71744   0.67802   0.78530   0.1586980000
H          H       0.92759   0.96746   0.83300   0.1572340000
H          H       0.87515   0.60690   0.82165   0.4264130000
H          H       0.82261   0.96744   0.86717   0.1581130000
H          H       0.53253   0.67921   0.91563   0.1570130000
H          H       0.62461   0.85733   0.98828   0.4243760000
H          H       0.57095   0.71744   0.70206   0.1587740000
H          H       0.78253   0.92822   0.74933   0.1578230000
H          H       0.87540   0.64268   0.98828   0.4243430000
H          H       0.92905   0.78256   0.70206   0.1587460000
H          H       0.71748   0.57178   0.74934   0.1578820000
H          H       0.62484   0.89310   0.82165   0.4263700000
H          H       0.67739   0.53256   0.86718   0.1580070000
H          H       0.96747   0.82079   0.91562   0.1572380000
