data_crystal
 
_cell_length_a    42.48400
_cell_length_b    42.48000
_cell_length_c    31.95900
_cell_angle_alpha 89.99900
_cell_angle_beta  89.99900
_cell_angle_gamma 90.00000
 
_symmetry_space_group_name_Hall 'P 1'
_symmetry_space_group_name_H-M  'P 1'
 
loop_
_symmetry_equiv_pos_as_xyz
 'x,y,z' 
 
loop_
_atom_site_label
_atom_site_type_symbol
_atom_site_fract_x
_atom_site_fract_y
_atom_site_fract_z
_atom_site_charge
Al         Al      0.12442   0.09124   0.01603   1.6718300000
Al         Al      0.37466   0.34149   0.18283   1.6690770000
Al         Al      0.12535   0.15851   0.18283   1.6689260000
Al         Al      0.37559   0.40877   0.01602   1.6718590000
Al         Al      0.40876   0.37467   0.09946   1.6754850000
Al         Al      0.15845   0.12444   0.26615   1.6657530000
Al         Al      0.34156   0.37556   0.26615   1.6658560000
Al         Al      0.09123   0.12533   0.09946   1.6752570000
Al         Al      0.12442   0.40876   0.01603   1.6719000000
Al         Al      0.37466   0.15851   0.18283   1.6689860000
Al         Al      0.12535   0.34149   0.18283   1.6690320000
Al         Al      0.37559   0.09124   0.01603   1.6718960000
Al         Al      0.40877   0.12533   0.09946   1.6753230000
Al         Al      0.15845   0.37556   0.26615   1.6658490000
Al         Al      0.34155   0.12444   0.26615   1.6657530000
Al         Al      0.09123   0.37467   0.09946   1.6755320000
O          O       0.07952   0.40950   0.00837  -0.5802820000
O          O       0.12061   0.05842   0.05643  -0.5698160000
O          O       0.12720   0.37757   0.30791  -1.0046660000
O          O       0.16986   0.09043   0.02487  -0.6017490000
O          O       0.12715   0.05872   0.30872  -0.5641030000
O          O       0.32986   0.15884   0.17497  -0.5785060000
O          O       0.36991   0.30810   0.22293  -0.5659480000
O          O       0.37776   0.12720   0.14143  -1.0081920000
O          O       0.41995   0.33974   0.19167  -0.6012450000
O          O       0.37759   0.30924   0.14197  -0.5642920000
O          O       0.17014   0.34117   0.17497  -0.5786910000
O          O       0.13009   0.19190   0.22294  -0.5659690000
O          O       0.12224   0.37280   0.14143  -1.0085130000
O          O       0.08005   0.16026   0.19168  -0.6008790000
O          O       0.12241   0.19076   0.14197  -0.5643100000
O          O       0.42048   0.09051   0.00837  -0.5804390000
O          O       0.37940   0.44159   0.05642  -0.5698450000
O          O       0.37281   0.12243   0.30791  -1.0046280000
O          O       0.33014   0.40958   0.02487  -0.6016340000
O          O       0.37285   0.44129   0.30872  -0.5639680000
O          O       0.09056   0.32980   0.09156  -0.5800560000
O          O       0.44163   0.37003   0.13980  -0.5701370000
O          O       0.12232   0.37768   0.05794  -1.0076240000
O          O       0.40973   0.42006   0.10835  -0.6007350000
O          O       0.44126   0.37773   0.05888  -0.5647290000
O          O       0.34110   0.07961   0.25836  -0.5800640000
O          O       0.19186   0.12050   0.30629  -0.5656810000
O          O       0.37291   0.12733   0.22473  -1.0040030000
O          O       0.16013   0.16983   0.27487  -0.6008530000
O          O       0.19070   0.12701   0.22540  -0.5633090000
O          O       0.15890   0.42040   0.25836  -0.5801180000
O          O       0.30815   0.37950   0.30628  -0.5658090000
O          O       0.12709   0.37267   0.22473  -1.0040010000
O          O       0.33986   0.33018   0.27487  -0.6008400000
O          O       0.30930   0.37300   0.22540  -0.5631840000
O          O       0.40945   0.17020   0.09157  -0.5802540000
O          O       0.05837   0.12997   0.13981  -0.5701660000
O          O       0.37768   0.12232   0.05794  -1.0074870000
O          O       0.09028   0.07995   0.10836  -0.6006500000
O          O       0.05875   0.12227   0.05889  -0.5645680000
O          O       0.07952   0.09051   0.00837  -0.5805760000
O          O       0.12060   0.44159   0.05642  -0.5698470000
O          O       0.12720   0.12243   0.30791  -1.0045670000
O          O       0.16986   0.40958   0.02487  -0.6016870000
O          O       0.12715   0.44129   0.30872  -0.5641410000
O          O       0.32986   0.34117   0.17497  -0.5785640000
O          O       0.36991   0.19191   0.22293  -0.5659720000
O          O       0.37776   0.37280   0.14143  -1.0084130000
O          O       0.41996   0.16026   0.19167  -0.6009390000
O          O       0.37759   0.19075   0.14197  -0.5643700000
O          O       0.17014   0.15884   0.17497  -0.5785280000
O          O       0.13009   0.30810   0.22293  -0.5660810000
O          O       0.12225   0.12720   0.14143  -1.0082610000
O          O       0.08005   0.33974   0.19168  -0.6009170000
O          O       0.12241   0.30924   0.14197  -0.5642120000
O          O       0.42048   0.40949   0.00836  -0.5804040000
O          O       0.37940   0.05842   0.05643  -0.5698030000
O          O       0.37281   0.37757   0.30791  -1.0045830000
O          O       0.33014   0.09043   0.02488  -0.6019220000
O          O       0.37285   0.05872   0.30872  -0.5641140000
O          O       0.09055   0.17020   0.09157  -0.5801470000
O          O       0.44163   0.12998   0.13980  -0.5702050000
O          O       0.12231   0.12231   0.05795  -1.0074610000
O          O       0.40972   0.07994   0.10836  -0.6007720000
O          O       0.44126   0.12227   0.05889  -0.5645930000
O          O       0.34110   0.42040   0.25836  -0.5802370000
O          O       0.19185   0.37950   0.30628  -0.5657550000
O          O       0.37291   0.37267   0.22473  -1.0040570000
O          O       0.16013   0.33018   0.27487  -0.6007460000
O          O       0.19070   0.37300   0.22540  -0.5632380000
O          O       0.15890   0.07961   0.25836  -0.5801750000
O          O       0.30815   0.12050   0.30629  -0.5656970000
O          O       0.12710   0.12733   0.22473  -1.0040500000
O          O       0.33986   0.16983   0.27487  -0.6008190000
O          O       0.30930   0.12701   0.22540  -0.5633290000
O          O       0.40945   0.32980   0.09156  -0.5800060000
O          O       0.05837   0.37003   0.13980  -0.5701460000
O          O       0.37768   0.37768   0.05794  -1.0075560000
O          O       0.09028   0.42006   0.10835  -0.6009650000
O          O       0.05874   0.37773   0.05888  -0.5647360000
O          O       0.13956   0.00000   0.27945  -0.0663720000
O          O       0.38918   0.25000   0.11263  -0.0692620000
O          O       0.11082   0.25000   0.11263  -0.0693700000
O          O       0.36044   0.00000   0.27946  -0.0662650000
O          O      -0.00000   0.38915   0.02918  -0.0633940000
O          O       0.25000   0.36024   0.19733  -0.0658050000
O          O      -0.00000   0.11086   0.02918  -0.0632390000
O          O       0.25000   0.13977   0.19733  -0.0658580000
O          O       0.35717   0.25000   0.25217  -0.0631620000
O          O       0.10800   0.00000   0.08549  -0.0618020000
O          O       0.39200   0.00000   0.08549  -0.0619390000
O          O       0.14283   0.25000   0.25217  -0.0632450000
O          O       0.25000   0.10794   0.00225  -0.0651910000
O          O       0.00000   0.14279   0.16877  -0.0637130000
O          O       0.25000   0.39206   0.00225  -0.0651490000
O          O       0.00000   0.35721   0.16877  -0.0636920000
C          C       0.10367   0.05704   0.08922   0.5880130000
C          C       0.14467   0.05696   0.27647   0.5914330000
C          C       0.15000   0.02581   0.25795   0.0684490000
C          C       0.34705   0.27585   0.27399   0.0687840000
C          C       0.08266   0.01666   0.14358  -0.1697980000
C          C       0.16645   0.48334   0.22266  -0.1705860000
C          C       0.35297   0.30705   0.25574   0.5846730000
C          C       0.39508   0.30722   0.10975   0.5892660000
C          C       0.40026   0.27586   0.09155   0.0699490000
C          C       0.09818   0.02583   0.10757   0.0677960000
C          C       0.33098   0.26667   0.30958  -0.1709570000
C          C       0.41752   0.23333   0.05698  -0.1719100000
C          C       0.14704   0.19296   0.25574   0.5848460000
C          C       0.10492   0.19278   0.10975   0.5893530000
C          C       0.09974   0.22414   0.09155   0.0703490000
C          C       0.40182   0.47417   0.10757   0.0673830000
C          C       0.16901   0.23332   0.30958  -0.1707980000
C          C       0.08249   0.26666   0.05699  -0.1714770000
C          C       0.39633   0.44295   0.08922   0.5882260000
C          C       0.35533   0.44304   0.27647   0.5913940000
C          C       0.35001   0.47419   0.25794   0.0683570000
C          C       0.15296   0.22415   0.27399   0.0686480000
C          C       0.41734   0.48333   0.14358  -0.1698740000
C          C       0.33355   0.01667   0.22266  -0.1702170000
C          C       0.44293   0.35301   0.17250   0.5890980000
C          C       0.44304   0.39505   0.02646   0.5906350000
C          C       0.47421   0.39995   0.00784   0.0659590000
C          C       0.22416   0.09797   0.02422   0.0703230000
C          C       0.48333   0.33127   0.22638  -0.1702510000
C          C       0.01666   0.41673   0.30618  -0.1699640000
C          C       0.19295   0.10362   0.00582   0.5853780000
C          C       0.19276   0.14474   0.19343   0.5874240000
C          C       0.22417   0.15035   0.17573   0.0693820000
C          C       0.47417   0.34719   0.19067   0.0687640000
C          C       0.23333   0.08220   0.06003  -0.1712360000
C          C       0.26666   0.16701   0.14067  -0.1709880000
C          C       0.30705   0.39638   0.00582   0.5852420000
C          C       0.30723   0.35526   0.19343   0.5872950000
C          C       0.27584   0.34966   0.17573   0.0695500000
C          C       0.02584   0.15282   0.19067   0.0688810000
C          C       0.26668   0.41780   0.06003  -0.1713390000
C          C       0.23334   0.33299   0.14066  -0.1709820000
C          C       0.05707   0.14700   0.17250   0.5888370000
C          C       0.05697   0.10495   0.02646   0.5905890000
C          C       0.02579   0.10005   0.00784   0.0661670000
C          C       0.27585   0.40203   0.02421   0.0702680000
C          C       0.01667   0.16873   0.22638  -0.1701900000
C          C       0.48334   0.08327   0.30618  -0.1700710000
C          C       0.10368   0.44295   0.08922   0.5884780000
C          C       0.14467   0.44305   0.27647   0.5913420000
C          C       0.15000   0.47419   0.25794   0.0685880000
C          C       0.34704   0.22415   0.27399   0.0688560000
C          C       0.08266   0.48333   0.14358  -0.1700350000
C          C       0.16645   0.01667   0.22266  -0.1703260000
C          C       0.35296   0.19295   0.25574   0.5847430000
C          C       0.39508   0.19278   0.10975   0.5895590000
C          C       0.40026   0.22414   0.09155   0.0701580000
C          C       0.09818   0.47418   0.10757   0.0674350000
C          C       0.33098   0.23332   0.30958  -0.1709940000
C          C       0.41752   0.26666   0.05699  -0.1714780000
C          C       0.14703   0.30705   0.25574   0.5846950000
C          C       0.10492   0.30722   0.10975   0.5892070000
C          C       0.09974   0.27586   0.09155   0.0700580000
C          C       0.40182   0.02583   0.10757   0.0678580000
C          C       0.16901   0.26667   0.30958  -0.1710040000
C          C       0.08249   0.23333   0.05698  -0.1720220000
C          C       0.39633   0.05704   0.08922   0.5880800000
C          C       0.35533   0.05696   0.27647   0.5913010000
C          C       0.35001   0.02581   0.25794   0.0683870000
C          C       0.15296   0.27585   0.27399   0.0688620000
C          C       0.41735   0.01666   0.14358  -0.1696990000
C          C       0.33355   0.48334   0.22266  -0.1704710000
C          C       0.44293   0.14699   0.17250   0.5889600000
C          C       0.44304   0.10495   0.02646   0.5904820000
C          C       0.47421   0.10005   0.00784   0.0660850000
C          C       0.22416   0.40203   0.02421   0.0702760000
C          C       0.48333   0.16873   0.22638  -0.1702990000
C          C       0.01666   0.08327   0.30618  -0.1700930000
C          C       0.19295   0.39638   0.00582   0.5852460000
C          C       0.19277   0.35526   0.19343   0.5875420000
C          C       0.22417   0.34966   0.17573   0.0692870000
C          C       0.47417   0.15282   0.19067   0.0688210000
C          C       0.23333   0.41780   0.06003  -0.1713030000
C          C       0.26666   0.33299   0.14067  -0.1710400000
C          C       0.30705   0.10362   0.00581   0.5854610000
C          C       0.30723   0.14474   0.19343   0.5873990000
C          C       0.27583   0.15034   0.17574   0.0693870000
C          C       0.02584   0.34718   0.19067   0.0690200000
C          C       0.26667   0.08220   0.06003  -0.1713670000
C          C       0.23335   0.16701   0.14067  -0.1708410000
C          C       0.05707   0.35300   0.17250   0.5888140000
C          C       0.05697   0.39505   0.02646   0.5904570000
C          C       0.02580   0.39995   0.00784   0.0661060000
C          C       0.27585   0.09797   0.02421   0.0702550000
C          C       0.01667   0.33127   0.22638  -0.1703660000
C          C       0.48335   0.41673   0.30618  -0.1701260000
H          H       0.14265   0.12501   0.07140   0.4247070000
H          H       0.28257   0.17803   0.11862   0.1585640000
H          H       0.07241   0.46747   0.16634   0.1570440000
H          H       0.39317   0.37507   0.23847   0.4245700000
H          H       0.03257   0.42796   0.28432   0.1584110000
H          H       0.32040   0.21747   0.33207   0.1578830000
H          H       0.10683   0.12494   0.23848   0.4244890000
H          H       0.46743   0.07204   0.28432   0.1582900000
H          H       0.17960   0.28254   0.33207   0.1579330000
H          H       0.35735   0.37499   0.07139   0.4246840000
H          H       0.21743   0.32198   0.11862   0.1585250000
H          H       0.42760   0.03252   0.16634   0.1568970000
H          H       0.37521   0.39310   0.15501   0.4263560000
H          H       0.32262   0.03256   0.20051   0.1580380000
H          H       0.03253   0.32079   0.24896   0.1572080000
H          H       0.12461   0.14269   0.32161   0.4244680000
H          H       0.07096   0.28256   0.03538   0.1587880000
H          H       0.28253   0.07179   0.08267   0.1577290000
H          H       0.37539   0.35732   0.32161   0.4244230000
H          H       0.42905   0.21744   0.03538   0.1588080000
H          H       0.21748   0.42821   0.08266   0.1577080000
H          H       0.12480   0.10690   0.15501   0.4262560000
H          H       0.17738   0.46745   0.20051   0.1580510000
H          H       0.46747   0.17921   0.24896   0.1571840000
H          H       0.14266   0.37499   0.07139   0.4247810000
H          H       0.28257   0.32198   0.11862   0.1585630000
H          H       0.07240   0.03252   0.16634   0.1569760000
H          H       0.39316   0.12494   0.23847   0.4244550000
H          H       0.03257   0.07204   0.28432   0.1582730000
H          H       0.32040   0.28253   0.33207   0.1579060000
H          H       0.10683   0.37507   0.23847   0.4244600000
H          H       0.46743   0.42795   0.28431   0.1583540000
H          H       0.17960   0.21747   0.33207   0.1578740000
H          H       0.35735   0.12501   0.07139   0.4247460000
H          H       0.21743   0.17803   0.11862   0.1584920000
H          H       0.42759   0.46747   0.16633   0.1570560000
H          H       0.37520   0.10690   0.15501   0.4262080000
H          H       0.32262   0.46745   0.20051   0.1578720000
H          H       0.03253   0.17921   0.24896   0.1571100000
H          H       0.12462   0.35731   0.32161   0.4244060000
H          H       0.07096   0.21744   0.03538   0.1588280000
H          H       0.28253   0.42822   0.08267   0.1579370000
H          H       0.37539   0.14269   0.32161   0.4244880000
H          H       0.42905   0.28256   0.03538   0.1587810000
H          H       0.21748   0.07179   0.08267   0.1577180000
H          H       0.12479   0.39310   0.15501   0.4265090000
H          H       0.17738   0.03256   0.20051   0.1579740000
H          H       0.46747   0.32079   0.24895   0.1570890000
Al         Al      0.62442   0.09124   0.01603   1.6718300000
Al         Al      0.87465   0.34149   0.18283   1.6690770000
Al         Al      0.62534   0.15851   0.18283   1.6689260000
Al         Al      0.87559   0.40877   0.01602   1.6718590000
Al         Al      0.90876   0.37467   0.09946   1.6754850000
Al         Al      0.65845   0.12444   0.26615   1.6657530000
Al         Al      0.84156   0.37556   0.26615   1.6658560000
Al         Al      0.59124   0.12533   0.09946   1.6752570000
Al         Al      0.62442   0.40876   0.01603   1.6719000000
Al         Al      0.87465   0.15851   0.18283   1.6689860000
Al         Al      0.62534   0.34149   0.18283   1.6690320000
Al         Al      0.87559   0.09124   0.01603   1.6718960000
Al         Al      0.90876   0.12533   0.09946   1.6753230000
Al         Al      0.65845   0.37556   0.26615   1.6658490000
Al         Al      0.84156   0.12444   0.26615   1.6657530000
Al         Al      0.59124   0.37467   0.09946   1.6755320000
O          O       0.57952   0.40950   0.00837  -0.5802820000
O          O       0.62061   0.05842   0.05643  -0.5698160000
O          O       0.62720   0.37757   0.30791  -1.0046660000
O          O       0.66987   0.09043   0.02487  -0.6017490000
O          O       0.62715   0.05872   0.30872  -0.5641030000
O          O       0.82986   0.15884   0.17497  -0.5785060000
O          O       0.86991   0.30810   0.22293  -0.5659480000
O          O       0.87776   0.12720   0.14143  -1.0081920000
O          O       0.91995   0.33974   0.19167  -0.6012450000
O          O       0.87759   0.30924   0.14197  -0.5642920000
O          O       0.67014   0.34117   0.17497  -0.5786910000
O          O       0.63009   0.19190   0.22294  -0.5659690000
O          O       0.62225   0.37280   0.14143  -1.0085130000
O          O       0.58005   0.16026   0.19168  -0.6008790000
O          O       0.62241   0.19076   0.14197  -0.5643100000
O          O       0.92048   0.09051   0.00837  -0.5804390000
O          O       0.87940   0.44159   0.05642  -0.5698450000
O          O       0.87281   0.12243   0.30791  -1.0046280000
O          O       0.83014   0.40958   0.02487  -0.6016340000
O          O       0.87286   0.44129   0.30872  -0.5639680000
O          O       0.59056   0.32980   0.09156  -0.5800560000
O          O       0.94163   0.37003   0.13980  -0.5701370000
O          O       0.62232   0.37768   0.05794  -1.0076240000
O          O       0.90973   0.42006   0.10835  -0.6007350000
O          O       0.94126   0.37773   0.05888  -0.5647290000
O          O       0.84110   0.07961   0.25836  -0.5800640000
O          O       0.69185   0.12050   0.30629  -0.5656810000
O          O       0.87291   0.12733   0.22473  -1.0040030000
O          O       0.66014   0.16983   0.27487  -0.6008530000
O          O       0.69069   0.12701   0.22540  -0.5633090000
O          O       0.65891   0.42040   0.25836  -0.5801180000
O          O       0.80815   0.37950   0.30628  -0.5658090000
O          O       0.62710   0.37267   0.22473  -1.0040010000
O          O       0.83986   0.33018   0.27487  -0.6008400000
O          O       0.80931   0.37300   0.22540  -0.5631840000
O          O       0.90945   0.17020   0.09157  -0.5802540000
O          O       0.55837   0.12997   0.13981  -0.5701660000
O          O       0.87769   0.12232   0.05794  -1.0074870000
O          O       0.59028   0.07995   0.10836  -0.6006500000
O          O       0.55875   0.12227   0.05889  -0.5645680000
O          O       0.57952   0.09051   0.00837  -0.5805760000
O          O       0.62060   0.44159   0.05642  -0.5698470000
O          O       0.62720   0.12243   0.30791  -1.0045670000
O          O       0.66987   0.40958   0.02487  -0.6016870000
O          O       0.62715   0.44129   0.30872  -0.5641410000
O          O       0.82986   0.34117   0.17497  -0.5785640000
O          O       0.86991   0.19191   0.22293  -0.5659720000
O          O       0.87775   0.37280   0.14143  -1.0084130000
O          O       0.91996   0.16026   0.19167  -0.6009390000
O          O       0.87759   0.19075   0.14197  -0.5643700000
O          O       0.67014   0.15884   0.17497  -0.5785280000
O          O       0.63009   0.30810   0.22293  -0.5660810000
O          O       0.62225   0.12720   0.14143  -1.0082610000
O          O       0.58005   0.33974   0.19168  -0.6009170000
O          O       0.62241   0.30924   0.14197  -0.5642120000
O          O       0.92048   0.40949   0.00836  -0.5804040000
O          O       0.87940   0.05842   0.05643  -0.5698030000
O          O       0.87281   0.37757   0.30791  -1.0045830000
O          O       0.83013   0.09043   0.02488  -0.6019220000
O          O       0.87286   0.05872   0.30872  -0.5641140000
O          O       0.59055   0.17020   0.09157  -0.5801470000
O          O       0.94163   0.12998   0.13980  -0.5702050000
O          O       0.62231   0.12231   0.05795  -1.0074610000
O          O       0.90972   0.07994   0.10836  -0.6007720000
O          O       0.94126   0.12227   0.05889  -0.5645930000
O          O       0.84110   0.42040   0.25836  -0.5802370000
O          O       0.69186   0.37950   0.30628  -0.5657550000
O          O       0.87291   0.37267   0.22473  -1.0040570000
O          O       0.66014   0.33018   0.27487  -0.6007460000
O          O       0.69070   0.37300   0.22540  -0.5632380000
O          O       0.65890   0.07961   0.25836  -0.5801750000
O          O       0.80815   0.12050   0.30629  -0.5656970000
O          O       0.62709   0.12733   0.22473  -1.0040500000
O          O       0.83986   0.16983   0.27487  -0.6008190000
O          O       0.80931   0.12701   0.22540  -0.5633290000
O          O       0.90945   0.32980   0.09156  -0.5800060000
O          O       0.55837   0.37003   0.13980  -0.5701460000
O          O       0.87768   0.37768   0.05794  -1.0075560000
O          O       0.59028   0.42006   0.10835  -0.6009650000
O          O       0.55875   0.37773   0.05888  -0.5647360000
O          O       0.63956   0.00000   0.27945  -0.0663720000
O          O       0.88918   0.25000   0.11263  -0.0692620000
O          O       0.61082   0.25000   0.11263  -0.0693700000
O          O       0.86043   0.00000   0.27946  -0.0662650000
O          O       0.50000   0.38915   0.02918  -0.0633940000
O          O       0.75000   0.36024   0.19733  -0.0658050000
O          O       0.50000   0.11086   0.02918  -0.0632390000
O          O       0.75000   0.13977   0.19733  -0.0658580000
O          O       0.85717   0.25000   0.25217  -0.0631620000
O          O       0.60800   0.00000   0.08549  -0.0618020000
O          O       0.89200   0.00000   0.08549  -0.0619390000
O          O       0.64283   0.25000   0.25217  -0.0632450000
O          O       0.75000   0.10794   0.00225  -0.0651910000
O          O       0.50000   0.14279   0.16877  -0.0637130000
O          O       0.75000   0.39206   0.00225  -0.0651490000
O          O       0.50000   0.35721   0.16877  -0.0636920000
C          C       0.60367   0.05704   0.08922   0.5880130000
C          C       0.64467   0.05696   0.27647   0.5914330000
C          C       0.64999   0.02581   0.25795   0.0684490000
C          C       0.84705   0.27585   0.27399   0.0687840000
C          C       0.58266   0.01666   0.14358  -0.1697980000
C          C       0.66645   0.48334   0.22266  -0.1705860000
C          C       0.85296   0.30705   0.25574   0.5846730000
C          C       0.89508   0.30722   0.10975   0.5892660000
C          C       0.90026   0.27586   0.09155   0.0699490000
C          C       0.59818   0.02583   0.10757   0.0677960000
C          C       0.83098   0.26667   0.30958  -0.1709570000
C          C       0.91752   0.23333   0.05698  -0.1719100000
C          C       0.64704   0.19296   0.25574   0.5848460000
C          C       0.60492   0.19278   0.10975   0.5893530000
C          C       0.59974   0.22414   0.09155   0.0703490000
C          C       0.90182   0.47417   0.10757   0.0673830000
C          C       0.66902   0.23332   0.30958  -0.1707980000
C          C       0.58249   0.26666   0.05699  -0.1714770000
C          C       0.89632   0.44295   0.08922   0.5882260000
C          C       0.85533   0.44304   0.27647   0.5913940000
C          C       0.85001   0.47419   0.25794   0.0683570000
C          C       0.65296   0.22415   0.27399   0.0686480000
C          C       0.91734   0.48333   0.14358  -0.1698740000
C          C       0.83355   0.01667   0.22266  -0.1702170000
C          C       0.94293   0.35301   0.17250   0.5890980000
C          C       0.94304   0.39505   0.02646   0.5906350000
C          C       0.97421   0.39995   0.00784   0.0659590000
C          C       0.72415   0.09797   0.02422   0.0703230000
C          C       0.98333   0.33127   0.22638  -0.1702510000
C          C       0.51666   0.41673   0.30618  -0.1699640000
C          C       0.69295   0.10362   0.00582   0.5853780000
C          C       0.69277   0.14474   0.19343   0.5874240000
C          C       0.72417   0.15035   0.17573   0.0693820000
C          C       0.97417   0.34719   0.19067   0.0687640000
C          C       0.73333   0.08220   0.06003  -0.1712360000
C          C       0.76666   0.16701   0.14067  -0.1709880000
C          C       0.80705   0.39638   0.00582   0.5852420000
C          C       0.80724   0.35526   0.19343   0.5872950000
C          C       0.77584   0.34966   0.17573   0.0695500000
C          C       0.52584   0.15282   0.19067   0.0688810000
C          C       0.76668   0.41780   0.06003  -0.1713390000
C          C       0.73335   0.33299   0.14066  -0.1709820000
C          C       0.55707   0.14700   0.17250   0.5888370000
C          C       0.55697   0.10495   0.02646   0.5905890000
C          C       0.52580   0.10005   0.00784   0.0661670000
C          C       0.77585   0.40203   0.02421   0.0702680000
C          C       0.51667   0.16873   0.22638  -0.1701900000
C          C       0.98334   0.08327   0.30618  -0.1700710000
C          C       0.60368   0.44295   0.08922   0.5884780000
C          C       0.64467   0.44305   0.27647   0.5913420000
C          C       0.65000   0.47419   0.25794   0.0685880000
C          C       0.84704   0.22415   0.27399   0.0688560000
C          C       0.58266   0.48333   0.14358  -0.1700350000
C          C       0.66645   0.01667   0.22266  -0.1703260000
C          C       0.85297   0.19295   0.25574   0.5847430000
C          C       0.89508   0.19278   0.10975   0.5895590000
C          C       0.90026   0.22414   0.09155   0.0701580000
C          C       0.59818   0.47418   0.10757   0.0674350000
C          C       0.83098   0.23332   0.30958  -0.1709940000
C          C       0.91752   0.26666   0.05699  -0.1714780000
C          C       0.64703   0.30705   0.25574   0.5846950000
C          C       0.60492   0.30722   0.10975   0.5892070000
C          C       0.59974   0.27586   0.09155   0.0700580000
C          C       0.90182   0.02583   0.10757   0.0678580000
C          C       0.66902   0.26667   0.30958  -0.1710040000
C          C       0.58249   0.23333   0.05698  -0.1720220000
C          C       0.89632   0.05704   0.08922   0.5880800000
C          C       0.85533   0.05696   0.27647   0.5913010000
C          C       0.85000   0.02581   0.25794   0.0683870000
C          C       0.65296   0.27585   0.27399   0.0688620000
C          C       0.91735   0.01666   0.14358  -0.1696990000
C          C       0.83355   0.48334   0.22266  -0.1704710000
C          C       0.94293   0.14699   0.17250   0.5889600000
C          C       0.94304   0.10495   0.02646   0.5904820000
C          C       0.97421   0.10005   0.00784   0.0660850000
C          C       0.72416   0.40203   0.02421   0.0702760000
C          C       0.98333   0.16873   0.22638  -0.1702990000
C          C       0.51666   0.08327   0.30618  -0.1700930000
C          C       0.69295   0.39638   0.00582   0.5852460000
C          C       0.69276   0.35526   0.19343   0.5875420000
C          C       0.72417   0.34966   0.17573   0.0692870000
C          C       0.97417   0.15282   0.19067   0.0688210000
C          C       0.73333   0.41780   0.06003  -0.1713030000
C          C       0.76666   0.33299   0.14067  -0.1710400000
C          C       0.80705   0.10362   0.00581   0.5854610000
C          C       0.80723   0.14474   0.19343   0.5873990000
C          C       0.77583   0.15034   0.17574   0.0693870000
C          C       0.52584   0.34718   0.19067   0.0690200000
C          C       0.76667   0.08220   0.06003  -0.1713670000
C          C       0.73335   0.16701   0.14067  -0.1708410000
C          C       0.55707   0.35300   0.17250   0.5888140000
C          C       0.55697   0.39505   0.02646   0.5904570000
C          C       0.52580   0.39995   0.00784   0.0661060000
C          C       0.77585   0.09797   0.02421   0.0702550000
C          C       0.51667   0.33127   0.22638  -0.1703660000
C          C       0.98335   0.41673   0.30618  -0.1701260000
H          H       0.64265   0.12501   0.07140   0.4247070000
H          H       0.78257   0.17803   0.11862   0.1585640000
H          H       0.57241   0.46747   0.16634   0.1570440000
H          H       0.89317   0.37507   0.23847   0.4245700000
H          H       0.53257   0.42796   0.28432   0.1584110000
H          H       0.82040   0.21747   0.33207   0.1578830000
H          H       0.60684   0.12494   0.23848   0.4244890000
H          H       0.96743   0.07204   0.28432   0.1582900000
H          H       0.67960   0.28254   0.33207   0.1579330000
H          H       0.85735   0.37499   0.07139   0.4246840000
H          H       0.71743   0.32198   0.11862   0.1585250000
H          H       0.92759   0.03252   0.16634   0.1568970000
H          H       0.87521   0.39310   0.15501   0.4263560000
H          H       0.82262   0.03256   0.20051   0.1580380000
H          H       0.53253   0.32079   0.24896   0.1572080000
H          H       0.62462   0.14269   0.32161   0.4244680000
H          H       0.57096   0.28256   0.03538   0.1587880000
H          H       0.78253   0.07179   0.08267   0.1577290000
H          H       0.87539   0.35732   0.32161   0.4244230000
H          H       0.92905   0.21744   0.03538   0.1588080000
H          H       0.71748   0.42821   0.08266   0.1577080000
H          H       0.62479   0.10690   0.15501   0.4262560000
H          H       0.67739   0.46745   0.20051   0.1580510000
H          H       0.96747   0.17921   0.24896   0.1571840000
H          H       0.64266   0.37499   0.07139   0.4247810000
H          H       0.78257   0.32198   0.11862   0.1585630000
H          H       0.57240   0.03252   0.16634   0.1569760000
H          H       0.89316   0.12494   0.23847   0.4244550000
H          H       0.53257   0.07204   0.28432   0.1582730000
H          H       0.82040   0.28253   0.33207   0.1579060000
H          H       0.60684   0.37507   0.23847   0.4244600000
H          H       0.96744   0.42795   0.28431   0.1583540000
H          H       0.67960   0.21747   0.33207   0.1578740000
H          H       0.85735   0.12501   0.07139   0.4247460000
H          H       0.71743   0.17803   0.11862   0.1584920000
H          H       0.92760   0.46747   0.16633   0.1570560000
H          H       0.87520   0.10690   0.15501   0.4262080000
H          H       0.82262   0.46745   0.20051   0.1578720000
H          H       0.53253   0.17921   0.24896   0.1571100000
H          H       0.62462   0.35731   0.32161   0.4244060000
H          H       0.57096   0.21744   0.03538   0.1588280000
H          H       0.78253   0.42822   0.08267   0.1579370000
H          H       0.87539   0.14269   0.32161   0.4244880000
H          H       0.92905   0.28256   0.03538   0.1587810000
H          H       0.71748   0.07179   0.08267   0.1577180000
H          H       0.62479   0.39310   0.15501   0.4265090000
H          H       0.67738   0.03256   0.20051   0.1579740000
H          H       0.96747   0.32079   0.24895   0.1570890000
Al         Al      0.12442   0.59123   0.01603   1.6718300000
Al         Al      0.37466   0.84149   0.18283   1.6690770000
Al         Al      0.12535   0.65851   0.18283   1.6689260000
Al         Al      0.37559   0.90877   0.01602   1.6718590000
Al         Al      0.40876   0.87467   0.09946   1.6754850000
Al         Al      0.15845   0.62444   0.26615   1.6657530000
Al         Al      0.34155   0.87556   0.26615   1.6658560000
Al         Al      0.09123   0.62533   0.09946   1.6752570000
Al         Al      0.12442   0.90876   0.01603   1.6719000000
Al         Al      0.37466   0.65851   0.18283   1.6689860000
Al         Al      0.12535   0.84149   0.18283   1.6690320000
Al         Al      0.37559   0.59123   0.01603   1.6718960000
Al         Al      0.40876   0.62533   0.09946   1.6753230000
Al         Al      0.15845   0.87556   0.26615   1.6658490000
Al         Al      0.34155   0.62444   0.26615   1.6657530000
Al         Al      0.09123   0.87467   0.09946   1.6755320000
O          O       0.07952   0.90950   0.00837  -0.5802820000
O          O       0.12061   0.55841   0.05643  -0.5698160000
O          O       0.12720   0.87757   0.30791  -1.0046660000
O          O       0.16986   0.59043   0.02487  -0.6017490000
O          O       0.12715   0.55872   0.30872  -0.5641030000
O          O       0.32986   0.65883   0.17497  -0.5785060000
O          O       0.36991   0.80810   0.22293  -0.5659480000
O          O       0.37776   0.62720   0.14143  -1.0081920000
O          O       0.41995   0.83974   0.19167  -0.6012450000
O          O       0.37759   0.80924   0.14197  -0.5642920000
O          O       0.17014   0.84117   0.17497  -0.5786910000
O          O       0.13009   0.69190   0.22294  -0.5659690000
O          O       0.12224   0.87280   0.14143  -1.0085130000
O          O       0.08005   0.66027   0.19168  -0.6008790000
O          O       0.12241   0.69076   0.14197  -0.5643100000
O          O       0.42048   0.59051   0.00837  -0.5804390000
O          O       0.37940   0.94159   0.05642  -0.5698450000
O          O       0.37280   0.62243   0.30791  -1.0046280000
O          O       0.33014   0.90958   0.02487  -0.6016340000
O          O       0.37285   0.94129   0.30872  -0.5639680000
O          O       0.09055   0.82980   0.09156  -0.5800560000
O          O       0.44163   0.87003   0.13980  -0.5701370000
O          O       0.12231   0.87769   0.05794  -1.0076240000
O          O       0.40972   0.92006   0.10835  -0.6007350000
O          O       0.44126   0.87773   0.05888  -0.5647290000
O          O       0.34110   0.57961   0.25836  -0.5800640000
O          O       0.19186   0.62050   0.30629  -0.5656810000
O          O       0.37291   0.62733   0.22473  -1.0040030000
O          O       0.16013   0.66983   0.27487  -0.6008530000
O          O       0.19070   0.62701   0.22540  -0.5633090000
O          O       0.15890   0.92039   0.25836  -0.5801180000
O          O       0.30815   0.87950   0.30628  -0.5658090000
O          O       0.12709   0.87267   0.22473  -1.0040010000
O          O       0.33986   0.83017   0.27487  -0.6008400000
O          O       0.30930   0.87300   0.22540  -0.5631840000
O          O       0.40945   0.67020   0.09157  -0.5802540000
O          O       0.05837   0.62997   0.13981  -0.5701660000
O          O       0.37768   0.62232   0.05794  -1.0074870000
O          O       0.09028   0.57995   0.10836  -0.6006500000
O          O       0.05875   0.62227   0.05889  -0.5645680000
O          O       0.07952   0.59051   0.00837  -0.5805760000
O          O       0.12060   0.94159   0.05642  -0.5698470000
O          O       0.12720   0.62243   0.30791  -1.0045670000
O          O       0.16986   0.90958   0.02487  -0.6016870000
O          O       0.12715   0.94129   0.30872  -0.5641410000
O          O       0.32986   0.84117   0.17497  -0.5785640000
O          O       0.36991   0.69190   0.22293  -0.5659720000
O          O       0.37776   0.87280   0.14143  -1.0084130000
O          O       0.41996   0.66026   0.19167  -0.6009390000
O          O       0.37759   0.69076   0.14197  -0.5643700000
O          O       0.17014   0.65883   0.17497  -0.5785280000
O          O       0.13009   0.80810   0.22293  -0.5660810000
O          O       0.12225   0.62720   0.14143  -1.0082610000
O          O       0.08005   0.83974   0.19168  -0.6009170000
O          O       0.12241   0.80925   0.14197  -0.5642120000
O          O       0.42048   0.90949   0.00836  -0.5804040000
O          O       0.37940   0.55841   0.05643  -0.5698030000
O          O       0.37281   0.87757   0.30791  -1.0045830000
O          O       0.33014   0.59043   0.02488  -0.6019220000
O          O       0.37285   0.55872   0.30872  -0.5641140000
O          O       0.09055   0.67020   0.09157  -0.5801470000
O          O       0.44163   0.62997   0.13980  -0.5702050000
O          O       0.12231   0.62231   0.05795  -1.0074610000
O          O       0.40972   0.57994   0.10836  -0.6007720000
O          O       0.44126   0.62227   0.05889  -0.5645930000
O          O       0.34110   0.92039   0.25836  -0.5802370000
O          O       0.19186   0.87950   0.30628  -0.5657550000
O          O       0.37291   0.87267   0.22473  -1.0040570000
O          O       0.16013   0.83018   0.27487  -0.6007460000
O          O       0.19070   0.87300   0.22540  -0.5632380000
O          O       0.15890   0.57961   0.25836  -0.5801750000
O          O       0.30815   0.62050   0.30629  -0.5656970000
O          O       0.12710   0.62733   0.22473  -1.0040500000
O          O       0.33986   0.66983   0.27487  -0.6008190000
O          O       0.30930   0.62701   0.22540  -0.5633290000
O          O       0.40945   0.82980   0.09156  -0.5800060000
O          O       0.05837   0.87003   0.13980  -0.5701460000
O          O       0.37768   0.87769   0.05794  -1.0075560000
O          O       0.09028   0.92006   0.10835  -0.6009650000
O          O       0.05874   0.87773   0.05888  -0.5647360000
O          O       0.13956   0.50000   0.27945  -0.0663720000
O          O       0.38918   0.75000   0.11263  -0.0692620000
O          O       0.11082   0.75000   0.11263  -0.0693700000
O          O       0.36043   0.50000   0.27946  -0.0662650000
O          O      -0.00000   0.88915   0.02918  -0.0633940000
O          O       0.25000   0.86024   0.19733  -0.0658050000
O          O      -0.00000   0.61086   0.02918  -0.0632390000
O          O       0.25000   0.63977   0.19733  -0.0658580000
O          O       0.35717   0.75000   0.25217  -0.0631620000
O          O       0.10800   0.50000   0.08549  -0.0618020000
O          O       0.39200   0.50000   0.08549  -0.0619390000
O          O       0.14283   0.75000   0.25217  -0.0632450000
O          O       0.25000   0.60794   0.00225  -0.0651910000
O          O      -0.00000   0.64279   0.16877  -0.0637130000
O          O       0.25000   0.89206   0.00225  -0.0651490000
O          O       0.00000   0.85721   0.16877  -0.0636920000
C          C       0.10367   0.55705   0.08922   0.5880130000
C          C       0.14467   0.55695   0.27647   0.5914330000
C          C       0.15000   0.52581   0.25795   0.0684490000
C          C       0.34704   0.77585   0.27399   0.0687840000
C          C       0.08266   0.51667   0.14358  -0.1697980000
C          C       0.16645   0.98334   0.22266  -0.1705860000
C          C       0.35297   0.80705   0.25574   0.5846730000
C          C       0.39508   0.80722   0.10975   0.5892660000
C          C       0.40026   0.77586   0.09155   0.0699490000
C          C       0.09818   0.52583   0.10757   0.0677960000
C          C       0.33098   0.76667   0.30958  -0.1709570000
C          C       0.41752   0.73333   0.05698  -0.1719100000
C          C       0.14704   0.69296   0.25574   0.5848460000
C          C       0.10492   0.69278   0.10975   0.5893530000
C          C       0.09974   0.72414   0.09155   0.0703490000
C          C       0.40182   0.97417   0.10757   0.0673830000
C          C       0.16901   0.73333   0.30958  -0.1707980000
C          C       0.08249   0.76666   0.05699  -0.1714770000
C          C       0.39632   0.94295   0.08922   0.5882260000
C          C       0.35533   0.94305   0.27647   0.5913940000
C          C       0.35001   0.97419   0.25794   0.0683570000
C          C       0.15296   0.72415   0.27399   0.0686480000
C          C       0.41734   0.98333   0.14358  -0.1698740000
C          C       0.33355   0.51667   0.22266  -0.1702170000
C          C       0.44293   0.85301   0.17250   0.5890980000
C          C       0.44303   0.89505   0.02646   0.5906350000
C          C       0.47420   0.89995   0.00784   0.0659590000
C          C       0.22416   0.59797   0.02422   0.0703230000
C          C       0.48333   0.83127   0.22638  -0.1702510000
C          C       0.01666   0.91672   0.30618  -0.1699640000
C          C       0.19295   0.60362   0.00582   0.5853780000
C          C       0.19276   0.64474   0.19343   0.5874240000
C          C       0.22417   0.65035   0.17573   0.0693820000
C          C       0.47416   0.84718   0.19067   0.0687640000
C          C       0.23333   0.58220   0.06003  -0.1712360000
C          C       0.26666   0.66701   0.14067  -0.1709880000
C          C       0.30705   0.89638   0.00582   0.5852420000
C          C       0.30723   0.85527   0.19343   0.5872950000
C          C       0.27584   0.84966   0.17573   0.0695500000
C          C       0.02584   0.65282   0.19067   0.0688810000
C          C       0.26668   0.91780   0.06003  -0.1713390000
C          C       0.23334   0.83299   0.14066  -0.1709820000
C          C       0.05707   0.64699   0.17250   0.5888370000
C          C       0.05697   0.60495   0.02646   0.5905890000
C          C       0.02579   0.60005   0.00784   0.0661670000
C          C       0.27585   0.90204   0.02421   0.0702680000
C          C       0.01667   0.66873   0.22638  -0.1701900000
C          C       0.48334   0.58327   0.30618  -0.1700710000
C          C       0.10368   0.94295   0.08922   0.5884780000
C          C       0.14467   0.94305   0.27647   0.5913420000
C          C       0.15000   0.97419   0.25794   0.0685880000
C          C       0.34704   0.72415   0.27399   0.0688560000
C          C       0.08266   0.98333   0.14358  -0.1700350000
C          C       0.16645   0.51667   0.22266  -0.1703260000
C          C       0.35296   0.69295   0.25574   0.5847430000
C          C       0.39508   0.69278   0.10975   0.5895590000
C          C       0.40026   0.72414   0.09155   0.0701580000
C          C       0.09818   0.97418   0.10757   0.0674350000
C          C       0.33098   0.73333   0.30958  -0.1709940000
C          C       0.41752   0.76666   0.05699  -0.1714780000
C          C       0.14703   0.80705   0.25574   0.5846950000
C          C       0.10492   0.80722   0.10975   0.5892070000
C          C       0.09974   0.77585   0.09155   0.0700580000
C          C       0.40182   0.52583   0.10757   0.0678580000
C          C       0.16901   0.76667   0.30958  -0.1710040000
C          C       0.08249   0.73333   0.05698  -0.1720220000
C          C       0.39632   0.55705   0.08922   0.5880800000
C          C       0.35533   0.55695   0.27647   0.5913010000
C          C       0.35001   0.52581   0.25794   0.0683870000
C          C       0.15296   0.77585   0.27399   0.0688620000
C          C       0.41735   0.51667   0.14358  -0.1696990000
C          C       0.33355   0.98334   0.22266  -0.1704710000
C          C       0.44293   0.64699   0.17250   0.5889600000
C          C       0.44303   0.60495   0.02646   0.5904820000
C          C       0.47420   0.60005   0.00784   0.0660850000
C          C       0.22416   0.90204   0.02421   0.0702760000
C          C       0.48333   0.66873   0.22638  -0.1702990000
C          C       0.01666   0.58327   0.30618  -0.1700930000
C          C       0.19295   0.89638   0.00582   0.5852460000
C          C       0.19277   0.85527   0.19343   0.5875420000
C          C       0.22417   0.84966   0.17573   0.0692870000
C          C       0.47416   0.65282   0.19067   0.0688210000
C          C       0.23333   0.91780   0.06003  -0.1713030000
C          C       0.26666   0.83299   0.14067  -0.1710400000
C          C       0.30705   0.60362   0.00581   0.5854610000
C          C       0.30723   0.64474   0.19343   0.5873990000
C          C       0.27583   0.65034   0.17574   0.0693870000
C          C       0.02584   0.84718   0.19067   0.0690200000
C          C       0.26667   0.58220   0.06003  -0.1713670000
C          C       0.23335   0.66701   0.14067  -0.1708410000
C          C       0.05707   0.85300   0.17250   0.5888140000
C          C       0.05697   0.89505   0.02646   0.5904570000
C          C       0.02580   0.89995   0.00784   0.0661060000
C          C       0.27584   0.59797   0.02421   0.0702550000
C          C       0.01667   0.83127   0.22638  -0.1703660000
C          C       0.48334   0.91672   0.30618  -0.1701260000
H          H       0.14265   0.62501   0.07140   0.4247070000
H          H       0.28257   0.67802   0.11862   0.1585640000
H          H       0.07241   0.96747   0.16634   0.1570440000
H          H       0.39317   0.87507   0.23847   0.4245700000
H          H       0.03257   0.92795   0.28432   0.1584110000
H          H       0.32040   0.71747   0.33207   0.1578830000
H          H       0.10683   0.62494   0.23848   0.4244890000
H          H       0.46743   0.57205   0.28432   0.1582900000
H          H       0.17960   0.78254   0.33207   0.1579330000
H          H       0.35735   0.87499   0.07139   0.4246840000
H          H       0.21743   0.82198   0.11862   0.1585250000
H          H       0.42759   0.53253   0.16634   0.1568970000
H          H       0.37521   0.89310   0.15501   0.4263560000
H          H       0.32262   0.53256   0.20051   0.1580380000
H          H       0.03253   0.82080   0.24896   0.1572080000
H          H       0.12461   0.64269   0.32161   0.4244680000
H          H       0.07096   0.78256   0.03538   0.1587880000
H          H       0.28253   0.57179   0.08267   0.1577290000
H          H       0.37539   0.85732   0.32161   0.4244230000
H          H       0.42905   0.71744   0.03538   0.1588080000
H          H       0.21748   0.92821   0.08266   0.1577080000
H          H       0.12479   0.60690   0.15501   0.4262560000
H          H       0.17738   0.96744   0.20051   0.1580510000
H          H       0.46747   0.67921   0.24896   0.1571840000
H          H       0.14266   0.87499   0.07139   0.4247810000
H          H       0.28257   0.82198   0.11862   0.1585630000
H          H       0.07240   0.53253   0.16634   0.1569760000
H          H       0.39316   0.62494   0.23847   0.4244550000
H          H       0.03257   0.57205   0.28432   0.1582730000
H          H       0.32040   0.78253   0.33207   0.1579060000
H          H       0.10683   0.87508   0.23847   0.4244600000
H          H       0.46743   0.92795   0.28431   0.1583540000
H          H       0.17960   0.71747   0.33207   0.1578740000
H          H       0.35735   0.62501   0.07139   0.4247460000
H          H       0.21743   0.67802   0.11862   0.1584920000
H          H       0.42759   0.96747   0.16633   0.1570560000
H          H       0.37520   0.60690   0.15501   0.4262080000
H          H       0.32262   0.96744   0.20051   0.1578720000
H          H       0.03253   0.67921   0.24896   0.1571100000
H          H       0.12462   0.85731   0.32161   0.4244060000
H          H       0.07096   0.71744   0.03538   0.1588280000
H          H       0.28253   0.92822   0.08267   0.1579370000
H          H       0.37539   0.64269   0.32161   0.4244880000
H          H       0.42905   0.78256   0.03538   0.1587810000
H          H       0.21748   0.57179   0.08267   0.1577180000
H          H       0.12479   0.89310   0.15501   0.4265090000
H          H       0.17738   0.53256   0.20051   0.1579740000
H          H       0.46747   0.82080   0.24895   0.1570890000
Al         Al      0.62442   0.59123   0.01603   1.6718300000
Al         Al      0.87465   0.84149   0.18283   1.6690770000
Al         Al      0.62534   0.65851   0.18283   1.6689260000
Al         Al      0.87559   0.90877   0.01602   1.6718590000
Al         Al      0.90876   0.87467   0.09946   1.6754850000
Al         Al      0.65845   0.62444   0.26615   1.6657530000
Al         Al      0.84156   0.87556   0.26615   1.6658560000
Al         Al      0.59124   0.62533   0.09946   1.6752570000
Al         Al      0.62442   0.90876   0.01603   1.6719000000
Al         Al      0.87465   0.65851   0.18283   1.6689860000
Al         Al      0.62534   0.84149   0.18283   1.6690320000
Al         Al      0.87559   0.59123   0.01603   1.6718960000
Al         Al      0.90876   0.62533   0.09946   1.6753230000
Al         Al      0.65845   0.87556   0.26615   1.6658490000
Al         Al      0.84156   0.62444   0.26615   1.6657530000
Al         Al      0.59124   0.87467   0.09946   1.6755320000
O          O       0.57951   0.90950   0.00837  -0.5802820000
O          O       0.62061   0.55841   0.05643  -0.5698160000
O          O       0.62720   0.87757   0.30791  -1.0046660000
O          O       0.66987   0.59043   0.02487  -0.6017490000
O          O       0.62715   0.55872   0.30872  -0.5641030000
O          O       0.82986   0.65883   0.17497  -0.5785060000
O          O       0.86991   0.80810   0.22293  -0.5659480000
O          O       0.87776   0.62720   0.14143  -1.0081920000
O          O       0.91995   0.83974   0.19167  -0.6012450000
O          O       0.87759   0.80924   0.14197  -0.5642920000
O          O       0.67014   0.84117   0.17497  -0.5786910000
O          O       0.63009   0.69190   0.22294  -0.5659690000
O          O       0.62225   0.87280   0.14143  -1.0085130000
O          O       0.58005   0.66027   0.19168  -0.6008790000
O          O       0.62241   0.69076   0.14197  -0.5643100000
O          O       0.92048   0.59051   0.00837  -0.5804390000
O          O       0.87940   0.94159   0.05642  -0.5698450000
O          O       0.87281   0.62243   0.30791  -1.0046280000
O          O       0.83014   0.90958   0.02487  -0.6016340000
O          O       0.87285   0.94129   0.30872  -0.5639680000
O          O       0.59056   0.82980   0.09156  -0.5800560000
O          O       0.94163   0.87003   0.13980  -0.5701370000
O          O       0.62232   0.87769   0.05794  -1.0076240000
O          O       0.90973   0.92006   0.10835  -0.6007350000
O          O       0.94126   0.87773   0.05888  -0.5647290000
O          O       0.84110   0.57961   0.25836  -0.5800640000
O          O       0.69185   0.62050   0.30629  -0.5656810000
O          O       0.87291   0.62733   0.22473  -1.0040030000
O          O       0.66014   0.66983   0.27487  -0.6008530000
O          O       0.69069   0.62701   0.22540  -0.5633090000
O          O       0.65890   0.92039   0.25836  -0.5801180000
O          O       0.80815   0.87950   0.30628  -0.5658090000
O          O       0.62710   0.87267   0.22473  -1.0040010000
O          O       0.83986   0.83017   0.27487  -0.6008400000
O          O       0.80931   0.87300   0.22540  -0.5631840000
O          O       0.90945   0.67020   0.09157  -0.5802540000
O          O       0.55837   0.62997   0.13981  -0.5701660000
O          O       0.87769   0.62232   0.05794  -1.0074870000
O          O       0.59028   0.57995   0.10836  -0.6006500000
O          O       0.55875   0.62227   0.05889  -0.5645680000
O          O       0.57952   0.59051   0.00837  -0.5805760000
O          O       0.62060   0.94159   0.05642  -0.5698470000
O          O       0.62720   0.62243   0.30791  -1.0045670000
O          O       0.66986   0.90958   0.02487  -0.6016870000
O          O       0.62715   0.94129   0.30872  -0.5641410000
O          O       0.82986   0.84117   0.17497  -0.5785640000
O          O       0.86991   0.69190   0.22293  -0.5659720000
O          O       0.87775   0.87280   0.14143  -1.0084130000
O          O       0.91996   0.66026   0.19167  -0.6009390000
O          O       0.87759   0.69076   0.14197  -0.5643700000
O          O       0.67014   0.65883   0.17497  -0.5785280000
O          O       0.63009   0.80810   0.22293  -0.5660810000
O          O       0.62225   0.62720   0.14143  -1.0082610000
O          O       0.58005   0.83974   0.19168  -0.6009170000
O          O       0.62241   0.80925   0.14197  -0.5642120000
O          O       0.92048   0.90949   0.00836  -0.5804040000
O          O       0.87940   0.55841   0.05643  -0.5698030000
O          O       0.87281   0.87757   0.30791  -1.0045830000
O          O       0.83013   0.59043   0.02488  -0.6019220000
O          O       0.87286   0.55872   0.30872  -0.5641140000
O          O       0.59055   0.67020   0.09157  -0.5801470000
O          O       0.94163   0.62997   0.13980  -0.5702050000
O          O       0.62231   0.62231   0.05795  -1.0074610000
O          O       0.90972   0.57994   0.10836  -0.6007720000
O          O       0.94126   0.62227   0.05889  -0.5645930000
O          O       0.84110   0.92039   0.25836  -0.5802370000
O          O       0.69186   0.87950   0.30628  -0.5657550000
O          O       0.87291   0.87267   0.22473  -1.0040570000
O          O       0.66014   0.83018   0.27487  -0.6007460000
O          O       0.69070   0.87300   0.22540  -0.5632380000
O          O       0.65890   0.57961   0.25836  -0.5801750000
O          O       0.80815   0.62050   0.30629  -0.5656970000
O          O       0.62709   0.62733   0.22473  -1.0040500000
O          O       0.83986   0.66983   0.27487  -0.6008190000
O          O       0.80931   0.62701   0.22540  -0.5633290000
O          O       0.90945   0.82980   0.09156  -0.5800060000
O          O       0.55837   0.87003   0.13980  -0.5701460000
O          O       0.87768   0.87769   0.05794  -1.0075560000
O          O       0.59028   0.92006   0.10835  -0.6009650000
O          O       0.55875   0.87773   0.05888  -0.5647360000
O          O       0.63956   0.50000   0.27945  -0.0663720000
O          O       0.88918   0.75000   0.11263  -0.0692620000
O          O       0.61082   0.75000   0.11263  -0.0693700000
O          O       0.86043   0.50000   0.27946  -0.0662650000
O          O       0.50000   0.88915   0.02918  -0.0633940000
O          O       0.75000   0.86024   0.19733  -0.0658050000
O          O       0.50000   0.61086   0.02918  -0.0632390000
O          O       0.75000   0.63977   0.19733  -0.0658580000
O          O       0.85717   0.75000   0.25217  -0.0631620000
O          O       0.60800   0.50000   0.08549  -0.0618020000
O          O       0.89200   0.50000   0.08549  -0.0619390000
O          O       0.64283   0.75000   0.25217  -0.0632450000
O          O       0.75000   0.60794   0.00225  -0.0651910000
O          O       0.50000   0.64279   0.16877  -0.0637130000
O          O       0.75000   0.89206   0.00225  -0.0651490000
O          O       0.50000   0.85721   0.16877  -0.0636920000
C          C       0.60367   0.55705   0.08922   0.5880130000
C          C       0.64467   0.55695   0.27647   0.5914330000
C          C       0.64999   0.52581   0.25795   0.0684490000
C          C       0.84705   0.77585   0.27399   0.0687840000
C          C       0.58266   0.51667   0.14358  -0.1697980000
C          C       0.66645   0.98334   0.22266  -0.1705860000
C          C       0.85296   0.80705   0.25574   0.5846730000
C          C       0.89508   0.80722   0.10975   0.5892660000
C          C       0.90026   0.77586   0.09155   0.0699490000
C          C       0.59818   0.52583   0.10757   0.0677960000
C          C       0.83098   0.76667   0.30958  -0.1709570000
C          C       0.91752   0.73333   0.05698  -0.1719100000
C          C       0.64704   0.69296   0.25574   0.5848460000
C          C       0.60492   0.69278   0.10975   0.5893530000
C          C       0.59974   0.72414   0.09155   0.0703490000
C          C       0.90182   0.97417   0.10757   0.0673830000
C          C       0.66902   0.73333   0.30958  -0.1707980000
C          C       0.58249   0.76666   0.05699  -0.1714770000
C          C       0.89632   0.94295   0.08922   0.5882260000
C          C       0.85533   0.94305   0.27647   0.5913940000
C          C       0.85000   0.97419   0.25794   0.0683570000
C          C       0.65296   0.72415   0.27399   0.0686480000
C          C       0.91734   0.98333   0.14358  -0.1698740000
C          C       0.83355   0.51667   0.22266  -0.1702170000
C          C       0.94293   0.85301   0.17250   0.5890980000
C          C       0.94304   0.89505   0.02646   0.5906350000
C          C       0.97421   0.89995   0.00784   0.0659590000
C          C       0.72415   0.59797   0.02422   0.0703230000
C          C       0.98333   0.83127   0.22638  -0.1702510000
C          C       0.51666   0.91672   0.30618  -0.1699640000
C          C       0.69295   0.60362   0.00582   0.5853780000
C          C       0.69277   0.64474   0.19343   0.5874240000
C          C       0.72417   0.65035   0.17573   0.0693820000
C          C       0.97417   0.84718   0.19067   0.0687640000
C          C       0.73333   0.58220   0.06003  -0.1712360000
C          C       0.76666   0.66701   0.14067  -0.1709880000
C          C       0.80705   0.89638   0.00582   0.5852420000
C          C       0.80724   0.85527   0.19343   0.5872950000
C          C       0.77584   0.84966   0.17573   0.0695500000
C          C       0.52584   0.65282   0.19067   0.0688810000
C          C       0.76667   0.91780   0.06003  -0.1713390000
C          C       0.73335   0.83299   0.14066  -0.1709820000
C          C       0.55707   0.64699   0.17250   0.5888370000
C          C       0.55697   0.60495   0.02646   0.5905890000
C          C       0.52580   0.60005   0.00784   0.0661670000
C          C       0.77585   0.90204   0.02421   0.0702680000
C          C       0.51667   0.66873   0.22638  -0.1701900000
C          C       0.98334   0.58327   0.30618  -0.1700710000
C          C       0.60368   0.94295   0.08922   0.5884780000
C          C       0.64467   0.94305   0.27647   0.5913420000
C          C       0.65000   0.97419   0.25794   0.0685880000
C          C       0.84704   0.72415   0.27399   0.0688560000
C          C       0.58266   0.98333   0.14358  -0.1700350000
C          C       0.66645   0.51667   0.22266  -0.1703260000
C          C       0.85297   0.69295   0.25574   0.5847430000
C          C       0.89508   0.69278   0.10975   0.5895590000
C          C       0.90026   0.72414   0.09155   0.0701580000
C          C       0.59818   0.97418   0.10757   0.0674350000
C          C       0.83098   0.73333   0.30958  -0.1709940000
C          C       0.91752   0.76666   0.05699  -0.1714780000
C          C       0.64703   0.80705   0.25574   0.5846950000
C          C       0.60492   0.80722   0.10975   0.5892070000
C          C       0.59974   0.77585   0.09155   0.0700580000
C          C       0.90182   0.52583   0.10757   0.0678580000
C          C       0.66902   0.76667   0.30958  -0.1710040000
C          C       0.58249   0.73333   0.05698  -0.1720220000
C          C       0.89632   0.55705   0.08922   0.5880800000
C          C       0.85533   0.55695   0.27647   0.5913010000
C          C       0.85000   0.52581   0.25794   0.0683870000
C          C       0.65296   0.77585   0.27399   0.0688620000
C          C       0.91735   0.51667   0.14358  -0.1696990000
C          C       0.83355   0.98334   0.22266  -0.1704710000
C          C       0.94293   0.64699   0.17250   0.5889600000
C          C       0.94304   0.60495   0.02646   0.5904820000
C          C       0.97421   0.60005   0.00784   0.0660850000
C          C       0.72416   0.90204   0.02421   0.0702760000
C          C       0.98333   0.66873   0.22638  -0.1702990000
C          C       0.51666   0.58327   0.30618  -0.1700930000
C          C       0.69295   0.89638   0.00582   0.5852460000
C          C       0.69276   0.85527   0.19343   0.5875420000
C          C       0.72417   0.84966   0.17573   0.0692870000
C          C       0.97417   0.65282   0.19067   0.0688210000
C          C       0.73333   0.91780   0.06003  -0.1713030000
C          C       0.76666   0.83299   0.14067  -0.1710400000
C          C       0.80705   0.60362   0.00581   0.5854610000
C          C       0.80723   0.64474   0.19343   0.5873990000
C          C       0.77583   0.65034   0.17574   0.0693870000
C          C       0.52584   0.84718   0.19067   0.0690200000
C          C       0.76667   0.58220   0.06003  -0.1713670000
C          C       0.73335   0.66701   0.14067  -0.1708410000
C          C       0.55707   0.85300   0.17250   0.5888140000
C          C       0.55697   0.89505   0.02646   0.5904570000
C          C       0.52580   0.89995   0.00784   0.0661060000
C          C       0.77585   0.59797   0.02421   0.0702550000
C          C       0.51667   0.83127   0.22638  -0.1703660000
C          C       0.98335   0.91672   0.30618  -0.1701260000
H          H       0.64265   0.62501   0.07140   0.4247070000
H          H       0.78257   0.67802   0.11862   0.1585640000
H          H       0.57241   0.96747   0.16634   0.1570440000
H          H       0.89317   0.87507   0.23847   0.4245700000
H          H       0.53257   0.92795   0.28432   0.1584110000
H          H       0.82040   0.71747   0.33207   0.1578830000
H          H       0.60684   0.62494   0.23848   0.4244890000
H          H       0.96743   0.57205   0.28432   0.1582900000
H          H       0.67960   0.78254   0.33207   0.1579330000
H          H       0.85735   0.87499   0.07139   0.4246840000
H          H       0.71743   0.82198   0.11862   0.1585250000
H          H       0.92759   0.53253   0.16634   0.1568970000
H          H       0.87521   0.89310   0.15501   0.4263560000
H          H       0.82262   0.53256   0.20051   0.1580380000
H          H       0.53253   0.82080   0.24896   0.1572080000
H          H       0.62462   0.64269   0.32161   0.4244680000
H          H       0.57096   0.78256   0.03538   0.1587880000
H          H       0.78253   0.57179   0.08267   0.1577290000
H          H       0.87539   0.85732   0.32161   0.4244230000
H          H       0.92905   0.71744   0.03538   0.1588080000
H          H       0.71747   0.92821   0.08266   0.1577080000
H          H       0.62479   0.60690   0.15501   0.4262560000
H          H       0.67739   0.96744   0.20051   0.1580510000
H          H       0.96747   0.67921   0.24896   0.1571840000
H          H       0.64266   0.87499   0.07139   0.4247810000
H          H       0.78257   0.82198   0.11862   0.1585630000
H          H       0.57240   0.53253   0.16634   0.1569760000
H          H       0.89316   0.62494   0.23847   0.4244550000
H          H       0.53257   0.57205   0.28432   0.1582730000
H          H       0.82040   0.78253   0.33207   0.1579060000
H          H       0.60684   0.87508   0.23847   0.4244600000
H          H       0.96744   0.92795   0.28431   0.1583540000
H          H       0.67960   0.71747   0.33207   0.1578740000
H          H       0.85735   0.62501   0.07139   0.4247460000
H          H       0.71743   0.67802   0.11862   0.1584920000
H          H       0.92759   0.96747   0.16633   0.1570560000
H          H       0.87520   0.60690   0.15501   0.4262080000
H          H       0.82262   0.96744   0.20051   0.1578720000
H          H       0.53253   0.67921   0.24896   0.1571100000
H          H       0.62462   0.85731   0.32161   0.4244060000
H          H       0.57096   0.71744   0.03538   0.1588280000
H          H       0.78253   0.92822   0.08267   0.1579370000
H          H       0.87539   0.64269   0.32161   0.4244880000
H          H       0.92905   0.78256   0.03538   0.1587810000
H          H       0.71748   0.57179   0.08267   0.1577180000
H          H       0.62479   0.89310   0.15501   0.4265090000
H          H       0.67738   0.53256   0.20051   0.1579740000
H          H       0.96747   0.82080   0.24895   0.1570890000
Al         Al      0.12442   0.09124   0.34936   1.6718300000
Al         Al      0.37466   0.34149   0.51616   1.6690770000
Al         Al      0.12535   0.15851   0.51616   1.6689260000
Al         Al      0.37559   0.40877   0.34936   1.6718590000
Al         Al      0.40876   0.37467   0.43279   1.6754850000
Al         Al      0.15845   0.12444   0.59948   1.6657530000
Al         Al      0.34156   0.37556   0.59948   1.6658560000
Al         Al      0.09123   0.12533   0.43279   1.6752570000
Al         Al      0.12442   0.40876   0.34936   1.6719000000
Al         Al      0.37466   0.15851   0.51616   1.6689860000
Al         Al      0.12535   0.34149   0.51616   1.6690320000
Al         Al      0.37559   0.09124   0.34936   1.6718960000
Al         Al      0.40876   0.12533   0.43279   1.6753230000
Al         Al      0.15845   0.37556   0.59948   1.6658490000
Al         Al      0.34156   0.12444   0.59948   1.6657530000
Al         Al      0.09123   0.37467   0.43279   1.6755320000
O          O       0.07952   0.40950   0.34170  -0.5802820000
O          O       0.12061   0.05842   0.38976  -0.5698160000
O          O       0.12720   0.37757   0.64124  -1.0046660000
O          O       0.16986   0.09043   0.35821  -0.6017490000
O          O       0.12715   0.05872   0.64205  -0.5641030000
O          O       0.32986   0.15884   0.50831  -0.5785060000
O          O       0.36991   0.30810   0.55627  -0.5659480000
O          O       0.37776   0.12720   0.47476  -1.0081920000
O          O       0.41995   0.33974   0.52501  -0.6012450000
O          O       0.37759   0.30924   0.47530  -0.5642920000
O          O       0.17014   0.34117   0.50831  -0.5786910000
O          O       0.13010   0.19190   0.55627  -0.5659690000
O          O       0.12224   0.37280   0.47476  -1.0085130000
O          O       0.08005   0.16026   0.52501  -0.6008790000
O          O       0.12241   0.19076   0.47530  -0.5643100000
O          O       0.42048   0.09051   0.34170  -0.5804390000
O          O       0.37940   0.44159   0.38976  -0.5698450000
O          O       0.37280   0.12243   0.64124  -1.0046280000
O          O       0.33014   0.40958   0.35821  -0.6016340000
O          O       0.37285   0.44129   0.64205  -0.5639680000
O          O       0.09056   0.32980   0.42490  -0.5800560000
O          O       0.44163   0.37003   0.47314  -0.5701370000
O          O       0.12231   0.37768   0.39128  -1.0076240000
O          O       0.40973   0.42006   0.44169  -0.6007350000
O          O       0.44126   0.37773   0.39222  -0.5647290000
O          O       0.34110   0.07961   0.59169  -0.5800640000
O          O       0.19185   0.12050   0.63962  -0.5656810000
O          O       0.37291   0.12733   0.55806  -1.0040030000
O          O       0.16013   0.16983   0.60820  -0.6008530000
O          O       0.19070   0.12701   0.55874  -0.5633090000
O          O       0.15890   0.42040   0.59169  -0.5801180000
O          O       0.30815   0.37950   0.63962  -0.5658090000
O          O       0.12710   0.37267   0.55806  -1.0040010000
O          O       0.33986   0.33018   0.60820  -0.6008400000
O          O       0.30930   0.37300   0.55874  -0.5631840000
O          O       0.40945   0.17020   0.42490  -0.5802540000
O          O       0.05837   0.12997   0.47314  -0.5701660000
O          O       0.37768   0.12231   0.39128  -1.0074870000
O          O       0.09028   0.07995   0.44169  -0.6006500000
O          O       0.05875   0.12227   0.39222  -0.5645680000
O          O       0.07952   0.09051   0.34170  -0.5805760000
O          O       0.12060   0.44159   0.38976  -0.5698470000
O          O       0.12720   0.12243   0.64125  -1.0045670000
O          O       0.16986   0.40958   0.35820  -0.6016870000
O          O       0.12715   0.44129   0.64205  -0.5641410000
O          O       0.32986   0.34117   0.50831  -0.5785640000
O          O       0.36991   0.19191   0.55627  -0.5659720000
O          O       0.37776   0.37280   0.47476  -1.0084130000
O          O       0.41996   0.16026   0.52501  -0.6009390000
O          O       0.37759   0.19075   0.47530  -0.5643700000
O          O       0.17014   0.15884   0.50831  -0.5785280000
O          O       0.13009   0.30810   0.55627  -0.5660810000
O          O       0.12225   0.12720   0.47476  -1.0082610000
O          O       0.08005   0.33974   0.52501  -0.6009170000
O          O       0.12241   0.30924   0.47530  -0.5642120000
O          O       0.42048   0.40949   0.34170  -0.5804040000
O          O       0.37940   0.05842   0.38976  -0.5698030000
O          O       0.37281   0.37757   0.64124  -1.0045830000
O          O       0.33014   0.09043   0.35821  -0.6019220000
O          O       0.37285   0.05872   0.64205  -0.5641140000
O          O       0.09055   0.17020   0.42490  -0.5801470000
O          O       0.44163   0.12998   0.47314  -0.5702050000
O          O       0.12231   0.12231   0.39128  -1.0074610000
O          O       0.40972   0.07994   0.44169  -0.6007720000
O          O       0.44126   0.12227   0.39222  -0.5645930000
O          O       0.34110   0.42040   0.59169  -0.5802370000
O          O       0.19185   0.37950   0.63962  -0.5657550000
O          O       0.37291   0.37267   0.55806  -1.0040570000
O          O       0.16013   0.33018   0.60820  -0.6007460000
O          O       0.19070   0.37300   0.55874  -0.5632380000
O          O       0.15890   0.07961   0.59170  -0.5801750000
O          O       0.30815   0.12050   0.63962  -0.5656970000
O          O       0.12709   0.12733   0.55806  -1.0040500000
O          O       0.33986   0.16983   0.60820  -0.6008190000
O          O       0.30930   0.12701   0.55874  -0.5633290000
O          O       0.40945   0.32980   0.42490  -0.5800060000
O          O       0.05837   0.37003   0.47314  -0.5701460000
O          O       0.37768   0.37768   0.39127  -1.0075560000
O          O       0.09028   0.42006   0.44169  -0.6009650000
O          O       0.05875   0.37773   0.39222  -0.5647360000
O          O       0.13956   0.00000   0.61279  -0.0663720000
O          O       0.38918   0.25000   0.44596  -0.0692620000
O          O       0.11082   0.25000   0.44596  -0.0693700000
O          O       0.36044  -0.00000   0.61279  -0.0662650000
O          O       0.00000   0.38915   0.36251  -0.0633940000
O          O       0.25000   0.36024   0.53066  -0.0658050000
O          O       0.00000   0.11086   0.36251  -0.0632390000
O          O       0.25000   0.13977   0.53067  -0.0658580000
O          O       0.35717   0.25000   0.58551  -0.0631620000
O          O       0.10800   0.00000   0.41882  -0.0618020000
O          O       0.39200   0.00000   0.41882  -0.0619390000
O          O       0.14283   0.25000   0.58550  -0.0632450000
O          O       0.25000   0.10794   0.33558  -0.0651910000
O          O      -0.00000   0.14279   0.50211  -0.0637130000
O          O       0.25000   0.39206   0.33558  -0.0651490000
O          O       0.00000   0.35721   0.50211  -0.0636920000
C          C       0.10367   0.05704   0.42255   0.5880130000
C          C       0.14467   0.05696   0.60980   0.5914330000
C          C       0.14999   0.02581   0.59128   0.0684490000
C          C       0.34704   0.27585   0.60733   0.0687840000
C          C       0.08266   0.01667   0.47691  -0.1697980000
C          C       0.16645   0.48334   0.55599  -0.1705860000
C          C       0.35296   0.30705   0.58907   0.5846730000
C          C       0.39508   0.30722   0.44308   0.5892660000
C          C       0.40026   0.27586   0.42488   0.0699490000
C          C       0.09818   0.02583   0.44090   0.0677960000
C          C       0.33098   0.26667   0.64292  -0.1709570000
C          C       0.41752   0.23333   0.39032  -0.1719100000
C          C       0.14704   0.19296   0.58907   0.5848460000
C          C       0.10492   0.19278   0.44308   0.5893530000
C          C       0.09974   0.22414   0.42488   0.0703490000
C          C       0.40182   0.47417   0.44090   0.0673830000
C          C       0.16901   0.23332   0.64292  -0.1707980000
C          C       0.08249   0.26666   0.39032  -0.1714770000
C          C       0.39632   0.44295   0.42255   0.5882260000
C          C       0.35533   0.44304   0.60980   0.5913940000
C          C       0.35001   0.47419   0.59128   0.0683570000
C          C       0.15296   0.22415   0.60733   0.0686480000
C          C       0.41734   0.48333   0.47691  -0.1698740000
C          C       0.33355   0.01667   0.55599  -0.1702170000
C          C       0.44293   0.35301   0.50583   0.5890980000
C          C       0.44304   0.39505   0.35979   0.5906350000
C          C       0.47421   0.39995   0.34117   0.0659590000
C          C       0.22415   0.09797   0.35755   0.0703230000
C          C       0.48333   0.33127   0.55972  -0.1702510000
C          C       0.01666   0.41673   0.63951  -0.1699640000
C          C       0.19295   0.10362   0.33915   0.5853780000
C          C       0.19276   0.14474   0.52676   0.5874240000
C          C       0.22417   0.15035   0.50907   0.0693820000
C          C       0.47417   0.34719   0.52400   0.0687640000
C          C       0.23333   0.08220   0.39336  -0.1712360000
C          C       0.26666   0.16701   0.47400  -0.1709880000
C          C       0.30705   0.39638   0.33915   0.5852420000
C          C       0.30724   0.35526   0.52676   0.5872950000
C          C       0.27584   0.34966   0.50907   0.0695500000
C          C       0.02583   0.15282   0.52400   0.0688810000
C          C       0.26668   0.41780   0.39336  -0.1713390000
C          C       0.23334   0.33299   0.47400  -0.1709820000
C          C       0.05707   0.14700   0.50584   0.5888370000
C          C       0.05697   0.10495   0.35979   0.5905890000
C          C       0.02579   0.10005   0.34118   0.0661670000
C          C       0.27585   0.40203   0.35755   0.0702680000
C          C       0.01667   0.16873   0.55972  -0.1701900000
C          C       0.48334   0.08327   0.63951  -0.1700710000
C          C       0.10368   0.44295   0.42255   0.5884780000
C          C       0.14467   0.44305   0.60980   0.5913420000
C          C       0.15000   0.47419   0.59128   0.0685880000
C          C       0.34704   0.22415   0.60733   0.0688560000
C          C       0.08266   0.48333   0.47691  -0.1700350000
C          C       0.16645   0.01667   0.55599  -0.1703260000
C          C       0.35296   0.19295   0.58908   0.5847430000
C          C       0.39508   0.19278   0.44308   0.5895590000
C          C       0.40026   0.22414   0.42488   0.0701580000
C          C       0.09818   0.47418   0.44090   0.0674350000
C          C       0.33098   0.23332   0.64292  -0.1709940000
C          C       0.41752   0.26666   0.39032  -0.1714780000
C          C       0.14703   0.30705   0.58907   0.5846950000
C          C       0.10492   0.30722   0.44308   0.5892070000
C          C       0.09974   0.27586   0.42489   0.0700580000
C          C       0.40182   0.02583   0.44090   0.0678580000
C          C       0.16901   0.26667   0.64292  -0.1710040000
C          C       0.08249   0.23333   0.39032  -0.1720220000
C          C       0.39632   0.05704   0.42255   0.5880800000
C          C       0.35533   0.05696   0.60980   0.5913010000
C          C       0.35001   0.02581   0.59128   0.0683870000
C          C       0.15296   0.27585   0.60733   0.0688620000
C          C       0.41735   0.01667   0.47691  -0.1696990000
C          C       0.33355   0.48334   0.55599  -0.1704710000
C          C       0.44293   0.14699   0.50584   0.5889600000
C          C       0.44304   0.10495   0.35979   0.5904820000
C          C       0.47421   0.10005   0.34118   0.0660850000
C          C       0.22416   0.40203   0.35755   0.0702760000
C          C       0.48333   0.16873   0.55972  -0.1702990000
C          C       0.01666   0.08327   0.63951  -0.1700930000
C          C       0.19295   0.39638   0.33915   0.5852460000
C          C       0.19277   0.35526   0.52676   0.5875420000
C          C       0.22417   0.34966   0.50907   0.0692870000
C          C       0.47417   0.15282   0.52400   0.0688210000
C          C       0.23333   0.41780   0.39336  -0.1713030000
C          C       0.26666   0.33299   0.47400  -0.1710400000
C          C       0.30705   0.10362   0.33915   0.5854610000
C          C       0.30723   0.14474   0.52676   0.5873990000
C          C       0.27583   0.15034   0.50907   0.0693870000
C          C       0.02583   0.34718   0.52400   0.0690200000
C          C       0.26667   0.08220   0.39336  -0.1713670000
C          C       0.23334   0.16701   0.47400  -0.1708410000
C          C       0.05707   0.35300   0.50584   0.5888140000
C          C       0.05697   0.39505   0.35979   0.5904570000
C          C       0.02580   0.39995   0.34117   0.0661060000
C          C       0.27584   0.09797   0.35755   0.0702550000
C          C       0.01667   0.33127   0.55972  -0.1703660000
C          C       0.48334   0.41673   0.63951  -0.1701260000
H          H       0.14265   0.12501   0.40473   0.4247070000
H          H       0.28257   0.17802   0.45195   0.1585640000
H          H       0.07241   0.46747   0.49967   0.1570440000
H          H       0.39317   0.37507   0.57180   0.4245700000
H          H       0.03257   0.42796   0.61765   0.1584110000
H          H       0.32040   0.21747   0.66541   0.1578830000
H          H       0.10683   0.12494   0.57181   0.4244890000
H          H       0.46743   0.07205   0.61765   0.1582900000
H          H       0.17960   0.28253   0.66541   0.1579330000
H          H       0.35735   0.37499   0.40472   0.4246840000
H          H       0.21743   0.32198   0.45195   0.1585250000
H          H       0.42760   0.03252   0.49967   0.1568970000
H          H       0.37521   0.39310   0.48835   0.4263560000
H          H       0.32262   0.03256   0.53384   0.1580380000
H          H       0.03253   0.32079   0.58229   0.1572080000
H          H       0.12461   0.14269   0.65494   0.4244680000
H          H       0.07096   0.28256   0.36871   0.1587880000
H          H       0.28253   0.07179   0.41600   0.1577290000
H          H       0.37539   0.35732   0.65494   0.4244230000
H          H       0.42905   0.21744   0.36871   0.1588080000
H          H       0.21748   0.42821   0.41600   0.1577080000
H          H       0.12479   0.10690   0.48835   0.4262560000
H          H       0.17738   0.46745   0.53384   0.1580510000
H          H       0.46747   0.17921   0.58229   0.1571840000
H          H       0.14266   0.37499   0.40472   0.4247810000
H          H       0.28257   0.32198   0.45195   0.1585630000
H          H       0.07240   0.03252   0.49967   0.1569760000
H          H       0.39316   0.12494   0.57181   0.4244550000
H          H       0.03257   0.07205   0.61765   0.1582730000
H          H       0.32040   0.28253   0.66540   0.1579060000
H          H       0.10683   0.37507   0.57180   0.4244600000
H          H       0.46743   0.42795   0.61765   0.1583540000
H          H       0.17960   0.21747   0.66541   0.1578740000
H          H       0.35735   0.12501   0.40473   0.4247460000
H          H       0.21743   0.17802   0.45195   0.1584920000
H          H       0.42759   0.46747   0.49967   0.1570560000
H          H       0.37520   0.10690   0.48834   0.4262080000
H          H       0.32262   0.46745   0.53384   0.1578720000
H          H       0.03253   0.17921   0.58229   0.1571100000
H          H       0.12462   0.35731   0.65494   0.4244060000
H          H       0.07096   0.21744   0.36871   0.1588280000
H          H       0.28253   0.42822   0.41600   0.1579370000
H          H       0.37539   0.14269   0.65494   0.4244880000
H          H       0.42905   0.28256   0.36871   0.1587810000
H          H       0.21748   0.07179   0.41600   0.1577180000
H          H       0.12479   0.39310   0.48835   0.4265090000
H          H       0.17738   0.03256   0.53384   0.1579740000
H          H       0.46747   0.32079   0.58229   0.1570890000
Al         Al      0.62442   0.09124   0.34936   1.6718300000
Al         Al      0.87466   0.34149   0.51616   1.6690770000
Al         Al      0.62535   0.15851   0.51616   1.6689260000
Al         Al      0.87559   0.40877   0.34936   1.6718590000
Al         Al      0.90877   0.37467   0.43279   1.6754850000
Al         Al      0.65845   0.12444   0.59948   1.6657530000
Al         Al      0.84156   0.37556   0.59948   1.6658560000
Al         Al      0.59123   0.12533   0.43279   1.6752570000
Al         Al      0.62442   0.40876   0.34936   1.6719000000
Al         Al      0.87466   0.15851   0.51616   1.6689860000
Al         Al      0.62535   0.34149   0.51616   1.6690320000
Al         Al      0.87559   0.09124   0.34936   1.6718960000
Al         Al      0.90877   0.12533   0.43279   1.6753230000
Al         Al      0.65845   0.37556   0.59948   1.6658490000
Al         Al      0.84156   0.12444   0.59948   1.6657530000
Al         Al      0.59123   0.37467   0.43279   1.6755320000
O          O       0.57952   0.40950   0.34170  -0.5802820000
O          O       0.62061   0.05842   0.38976  -0.5698160000
O          O       0.62720   0.37757   0.64124  -1.0046660000
O          O       0.66987   0.09043   0.35821  -0.6017490000
O          O       0.62715   0.05872   0.64205  -0.5641030000
O          O       0.82986   0.15884   0.50831  -0.5785060000
O          O       0.86991   0.30810   0.55627  -0.5659480000
O          O       0.87776   0.12720   0.47476  -1.0081920000
O          O       0.91995   0.33974   0.52501  -0.6012450000
O          O       0.87759   0.30924   0.47530  -0.5642920000
O          O       0.67014   0.34117   0.50831  -0.5786910000
O          O       0.63009   0.19190   0.55627  -0.5659690000
O          O       0.62224   0.37280   0.47476  -1.0085130000
O          O       0.58005   0.16026   0.52501  -0.6008790000
O          O       0.62241   0.19076   0.47530  -0.5643100000
O          O       0.92048   0.09051   0.34170  -0.5804390000
O          O       0.87940   0.44159   0.38976  -0.5698450000
O          O       0.87281   0.12243   0.64124  -1.0046280000
O          O       0.83014   0.40958   0.35821  -0.6016340000
O          O       0.87286   0.44129   0.64205  -0.5639680000
O          O       0.59056   0.32980   0.42490  -0.5800560000
O          O       0.94163   0.37003   0.47314  -0.5701370000
O          O       0.62232   0.37768   0.39128  -1.0076240000
O          O       0.90973   0.42006   0.44169  -0.6007350000
O          O       0.94126   0.37773   0.39222  -0.5647290000
O          O       0.84110   0.07961   0.59169  -0.5800640000
O          O       0.69186   0.12050   0.63962  -0.5656810000
O          O       0.87291   0.12733   0.55806  -1.0040030000
O          O       0.66014   0.16983   0.60820  -0.6008530000
O          O       0.69069   0.12701   0.55874  -0.5633090000
O          O       0.65891   0.42040   0.59169  -0.5801180000
O          O       0.80815   0.37950   0.63962  -0.5658090000
O          O       0.62710   0.37267   0.55806  -1.0040010000
O          O       0.83987   0.33018   0.60820  -0.6008400000
O          O       0.80931   0.37300   0.55874  -0.5631840000
O          O       0.90945   0.17020   0.42490  -0.5802540000
O          O       0.55837   0.12997   0.47314  -0.5701660000
O          O       0.87769   0.12231   0.39128  -1.0074870000
O          O       0.59028   0.07995   0.44169  -0.6006500000
O          O       0.55875   0.12227   0.39222  -0.5645680000
O          O       0.57952   0.09051   0.34170  -0.5805760000
O          O       0.62060   0.44159   0.38976  -0.5698470000
O          O       0.62720   0.12243   0.64125  -1.0045670000
O          O       0.66986   0.40958   0.35820  -0.6016870000
O          O       0.62715   0.44129   0.64205  -0.5641410000
O          O       0.82986   0.34117   0.50831  -0.5785640000
O          O       0.86991   0.19191   0.55627  -0.5659720000
O          O       0.87776   0.37280   0.47476  -1.0084130000
O          O       0.91996   0.16026   0.52501  -0.6009390000
O          O       0.87759   0.19075   0.47530  -0.5643700000
O          O       0.67014   0.15884   0.50831  -0.5785280000
O          O       0.63009   0.30810   0.55627  -0.5660810000
O          O       0.62225   0.12720   0.47476  -1.0082610000
O          O       0.58005   0.33974   0.52501  -0.6009170000
O          O       0.62241   0.30924   0.47530  -0.5642120000
O          O       0.92048   0.40949   0.34170  -0.5804040000
O          O       0.87940   0.05842   0.38976  -0.5698030000
O          O       0.87281   0.37757   0.64124  -1.0045830000
O          O       0.83014   0.09043   0.35821  -0.6019220000
O          O       0.87286   0.05872   0.64205  -0.5641140000
O          O       0.59055   0.17020   0.42490  -0.5801470000
O          O       0.94163   0.12998   0.47314  -0.5702050000
O          O       0.62231   0.12231   0.39128  -1.0074610000
O          O       0.90972   0.07994   0.44169  -0.6007720000
O          O       0.94126   0.12227   0.39222  -0.5645930000
O          O       0.84110   0.42040   0.59169  -0.5802370000
O          O       0.69185   0.37950   0.63962  -0.5657550000
O          O       0.87291   0.37267   0.55806  -1.0040570000
O          O       0.66014   0.33018   0.60820  -0.6007460000
O          O       0.69070   0.37300   0.55874  -0.5632380000
O          O       0.65890   0.07961   0.59170  -0.5801750000
O          O       0.80815   0.12050   0.63962  -0.5656970000
O          O       0.62709   0.12733   0.55806  -1.0040500000
O          O       0.83987   0.16983   0.60820  -0.6008190000
O          O       0.80931   0.12701   0.55874  -0.5633290000
O          O       0.90945   0.32980   0.42490  -0.5800060000
O          O       0.55837   0.37003   0.47314  -0.5701460000
O          O       0.87769   0.37768   0.39127  -1.0075560000
O          O       0.59028   0.42006   0.44169  -0.6009650000
O          O       0.55875   0.37773   0.39222  -0.5647360000
O          O       0.63957   0.00000   0.61279  -0.0663720000
O          O       0.88918   0.25000   0.44596  -0.0692620000
O          O       0.61082   0.25000   0.44596  -0.0693700000
O          O       0.86044  -0.00000   0.61279  -0.0662650000
O          O       0.50000   0.38915   0.36251  -0.0633940000
O          O       0.75000   0.36024   0.53066  -0.0658050000
O          O       0.50000   0.11086   0.36251  -0.0632390000
O          O       0.75000   0.13977   0.53067  -0.0658580000
O          O       0.85717   0.25000   0.58551  -0.0631620000
O          O       0.60800   0.00000   0.41882  -0.0618020000
O          O       0.89200   0.00000   0.41882  -0.0619390000
O          O       0.64284   0.25000   0.58550  -0.0632450000
O          O       0.75000   0.10794   0.33558  -0.0651910000
O          O       0.50000   0.14279   0.50211  -0.0637130000
O          O       0.75000   0.39206   0.33558  -0.0651490000
O          O       0.50000   0.35721   0.50211  -0.0636920000
C          C       0.60367   0.05704   0.42255   0.5880130000
C          C       0.64467   0.05696   0.60980   0.5914330000
C          C       0.64999   0.02581   0.59128   0.0684490000
C          C       0.84705   0.27585   0.60733   0.0687840000
C          C       0.58266   0.01667   0.47691  -0.1697980000
C          C       0.66646   0.48334   0.55599  -0.1705860000
C          C       0.85296   0.30705   0.58907   0.5846730000
C          C       0.89508   0.30722   0.44308   0.5892660000
C          C       0.90026   0.27586   0.42488   0.0699490000
C          C       0.59818   0.02583   0.44090   0.0677960000
C          C       0.83099   0.26667   0.64292  -0.1709570000
C          C       0.91752   0.23333   0.39032  -0.1719100000
C          C       0.64704   0.19296   0.58907   0.5848460000
C          C       0.60492   0.19278   0.44308   0.5893530000
C          C       0.59974   0.22414   0.42488   0.0703490000
C          C       0.90182   0.47417   0.44090   0.0673830000
C          C       0.66902   0.23332   0.64292  -0.1707980000
C          C       0.58249   0.26666   0.39032  -0.1714770000
C          C       0.89632   0.44295   0.42255   0.5882260000
C          C       0.85533   0.44304   0.60980   0.5913940000
C          C       0.85001   0.47419   0.59128   0.0683570000
C          C       0.65296   0.22415   0.60733   0.0686480000
C          C       0.91735   0.48333   0.47691  -0.1698740000
C          C       0.83355   0.01667   0.55599  -0.1702170000
C          C       0.94293   0.35301   0.50583   0.5890980000
C          C       0.94304   0.39505   0.35979   0.5906350000
C          C       0.97421   0.39995   0.34117   0.0659590000
C          C       0.72415   0.09797   0.35755   0.0703230000
C          C       0.98333   0.33127   0.55972  -0.1702510000
C          C       0.51666   0.41673   0.63951  -0.1699640000
C          C       0.69295   0.10362   0.33915   0.5853780000
C          C       0.69276   0.14474   0.52676   0.5874240000
C          C       0.72417   0.15035   0.50907   0.0693820000
C          C       0.97417   0.34719   0.52400   0.0687640000
C          C       0.73333   0.08220   0.39336  -0.1712360000
C          C       0.76666   0.16701   0.47400  -0.1709880000
C          C       0.80705   0.39638   0.33915   0.5852420000
C          C       0.80724   0.35526   0.52676   0.5872950000
C          C       0.77584   0.34966   0.50907   0.0695500000
C          C       0.52584   0.15282   0.52400   0.0688810000
C          C       0.76668   0.41780   0.39336  -0.1713390000
C          C       0.73335   0.33299   0.47400  -0.1709820000
C          C       0.55707   0.14700   0.50584   0.5888370000
C          C       0.55697   0.10495   0.35979   0.5905890000
C          C       0.52580   0.10005   0.34118   0.0661670000
C          C       0.77585   0.40203   0.35755   0.0702680000
C          C       0.51667   0.16873   0.55972  -0.1701900000
C          C       0.98334   0.08327   0.63951  -0.1700710000
C          C       0.60368   0.44295   0.42255   0.5884780000
C          C       0.64467   0.44305   0.60980   0.5913420000
C          C       0.65000   0.47419   0.59128   0.0685880000
C          C       0.84704   0.22415   0.60733   0.0688560000
C          C       0.58266   0.48333   0.47691  -0.1700350000
C          C       0.66645   0.01667   0.55599  -0.1703260000
C          C       0.85297   0.19295   0.58908   0.5847430000
C          C       0.89508   0.19278   0.44308   0.5895590000
C          C       0.90026   0.22414   0.42488   0.0701580000
C          C       0.59818   0.47418   0.44090   0.0674350000
C          C       0.83099   0.23332   0.64292  -0.1709940000
C          C       0.91752   0.26666   0.39032  -0.1714780000
C          C       0.64703   0.30705   0.58907   0.5846950000
C          C       0.60492   0.30722   0.44308   0.5892070000
C          C       0.59974   0.27586   0.42489   0.0700580000
C          C       0.90182   0.02583   0.44090   0.0678580000
C          C       0.66902   0.26667   0.64292  -0.1710040000
C          C       0.58249   0.23333   0.39032  -0.1720220000
C          C       0.89632   0.05704   0.42255   0.5880800000
C          C       0.85533   0.05696   0.60980   0.5913010000
C          C       0.85001   0.02581   0.59128   0.0683870000
C          C       0.65296   0.27585   0.60733   0.0688620000
C          C       0.91735   0.01667   0.47691  -0.1696990000
C          C       0.83355   0.48334   0.55599  -0.1704710000
C          C       0.94293   0.14699   0.50584   0.5889600000
C          C       0.94304   0.10495   0.35979   0.5904820000
C          C       0.97421   0.10005   0.34118   0.0660850000
C          C       0.72416   0.40203   0.35755   0.0702760000
C          C       0.98333   0.16873   0.55972  -0.1702990000
C          C       0.51666   0.08327   0.63951  -0.1700930000
C          C       0.69295   0.39638   0.33915   0.5852460000
C          C       0.69276   0.35526   0.52676   0.5875420000
C          C       0.72417   0.34966   0.50907   0.0692870000
C          C       0.97417   0.15282   0.52400   0.0688210000
C          C       0.73333   0.41780   0.39336  -0.1713030000
C          C       0.76666   0.33299   0.47400  -0.1710400000
C          C       0.80705   0.10362   0.33915   0.5854610000
C          C       0.80724   0.14474   0.52676   0.5873990000
C          C       0.77583   0.15034   0.50907   0.0693870000
C          C       0.52584   0.34718   0.52400   0.0690200000
C          C       0.76667   0.08220   0.39336  -0.1713670000
C          C       0.73335   0.16701   0.47400  -0.1708410000
C          C       0.55707   0.35300   0.50584   0.5888140000
C          C       0.55697   0.39505   0.35979   0.5904570000
C          C       0.52580   0.39995   0.34117   0.0661060000
C          C       0.77585   0.09797   0.35755   0.0702550000
C          C       0.51667   0.33127   0.55972  -0.1703660000
C          C       0.98335   0.41673   0.63951  -0.1701260000
H          H       0.64265   0.12501   0.40473   0.4247070000
H          H       0.78257   0.17802   0.45195   0.1585640000
H          H       0.57241   0.46747   0.49967   0.1570440000
H          H       0.89317   0.37507   0.57180   0.4245700000
H          H       0.53257   0.42796   0.61765   0.1584110000
H          H       0.82040   0.21747   0.66541   0.1578830000
H          H       0.60684   0.12494   0.57181   0.4244890000
H          H       0.96743   0.07205   0.61765   0.1582900000
H          H       0.67960   0.28253   0.66541   0.1579330000
H          H       0.85735   0.37499   0.40472   0.4246840000
H          H       0.71743   0.32198   0.45195   0.1585250000
H          H       0.92759   0.03252   0.49967   0.1568970000
H          H       0.87521   0.39310   0.48835   0.4263560000
H          H       0.82262   0.03256   0.53384   0.1580380000
H          H       0.53253   0.32079   0.58229   0.1572080000
H          H       0.62462   0.14269   0.65494   0.4244680000
H          H       0.57096   0.28256   0.36871   0.1587880000
H          H       0.78253   0.07179   0.41600   0.1577290000
H          H       0.87539   0.35732   0.65494   0.4244230000
H          H       0.92905   0.21744   0.36871   0.1588080000
H          H       0.71748   0.42821   0.41600   0.1577080000
H          H       0.62479   0.10690   0.48835   0.4262560000
H          H       0.67739   0.46745   0.53384   0.1580510000
H          H       0.96747   0.17921   0.58229   0.1571840000
H          H       0.64266   0.37499   0.40472   0.4247810000
H          H       0.78257   0.32198   0.45195   0.1585630000
H          H       0.57241   0.03252   0.49967   0.1569760000
H          H       0.89316   0.12494   0.57181   0.4244550000
H          H       0.53257   0.07205   0.61765   0.1582730000
H          H       0.82041   0.28253   0.66540   0.1579060000
H          H       0.60684   0.37507   0.57180   0.4244600000
H          H       0.96744   0.42795   0.61765   0.1583540000
H          H       0.67960   0.21747   0.66541   0.1578740000
H          H       0.85735   0.12501   0.40473   0.4247460000
H          H       0.71743   0.17802   0.45195   0.1584920000
H          H       0.92760   0.46747   0.49967   0.1570560000
H          H       0.87520   0.10690   0.48834   0.4262080000
H          H       0.82262   0.46745   0.53384   0.1578720000
H          H       0.53253   0.17921   0.58229   0.1571100000
H          H       0.62462   0.35731   0.65494   0.4244060000
H          H       0.57096   0.21744   0.36871   0.1588280000
H          H       0.78253   0.42822   0.41600   0.1579370000
H          H       0.87539   0.14269   0.65494   0.4244880000
H          H       0.92905   0.28256   0.36871   0.1587810000
H          H       0.71748   0.07179   0.41600   0.1577180000
H          H       0.62479   0.39310   0.48835   0.4265090000
H          H       0.67738   0.03256   0.53384   0.1579740000
H          H       0.96747   0.32079   0.58229   0.1570890000
Al         Al      0.12442   0.59123   0.34936   1.6718300000
Al         Al      0.37466   0.84149   0.51616   1.6690770000
Al         Al      0.12535   0.65851   0.51616   1.6689260000
Al         Al      0.37559   0.90877   0.34936   1.6718590000
Al         Al      0.40876   0.87467   0.43279   1.6754850000
Al         Al      0.15845   0.62444   0.59948   1.6657530000
Al         Al      0.34156   0.87557   0.59948   1.6658560000
Al         Al      0.09123   0.62533   0.43279   1.6752570000
Al         Al      0.12442   0.90876   0.34936   1.6719000000
Al         Al      0.37466   0.65851   0.51616   1.6689860000
Al         Al      0.12535   0.84149   0.51616   1.6690320000
Al         Al      0.37559   0.59123   0.34936   1.6718960000
Al         Al      0.40876   0.62533   0.43279   1.6753230000
Al         Al      0.15845   0.87557   0.59948   1.6658490000
Al         Al      0.34155   0.62444   0.59948   1.6657530000
Al         Al      0.09123   0.87467   0.43279   1.6755320000
O          O       0.07952   0.90950   0.34170  -0.5802820000
O          O       0.12060   0.55841   0.38976  -0.5698160000
O          O       0.12720   0.87757   0.64124  -1.0046660000
O          O       0.16986   0.59043   0.35821  -0.6017490000
O          O       0.12715   0.55871   0.64205  -0.5641030000
O          O       0.32986   0.65883   0.50831  -0.5785060000
O          O       0.36990   0.80810   0.55627  -0.5659480000
O          O       0.37775   0.62720   0.47476  -1.0081920000
O          O       0.41995   0.83974   0.52501  -0.6012450000
O          O       0.37759   0.80925   0.47530  -0.5642920000
O          O       0.17014   0.84117   0.50831  -0.5786910000
O          O       0.13009   0.69190   0.55627  -0.5659690000
O          O       0.12224   0.87280   0.47476  -1.0085130000
O          O       0.08005   0.66027   0.52501  -0.6008790000
O          O       0.12241   0.69076   0.47530  -0.5643100000
O          O       0.42048   0.59051   0.34170  -0.5804390000
O          O       0.37940   0.94159   0.38976  -0.5698450000
O          O       0.37280   0.62243   0.64124  -1.0046280000
O          O       0.33014   0.90958   0.35821  -0.6016340000
O          O       0.37285   0.94129   0.64205  -0.5639680000
O          O       0.09056   0.82980   0.42490  -0.5800560000
O          O       0.44163   0.87003   0.47314  -0.5701370000
O          O       0.12231   0.87769   0.39128  -1.0076240000
O          O       0.40973   0.92006   0.44169  -0.6007350000
O          O       0.44126   0.87774   0.39222  -0.5647290000
O          O       0.34110   0.57961   0.59169  -0.5800640000
O          O       0.19186   0.62050   0.63962  -0.5656810000
O          O       0.37291   0.62733   0.55806  -1.0040030000
O          O       0.16013   0.66983   0.60820  -0.6008530000
O          O       0.19070   0.62701   0.55874  -0.5633090000
O          O       0.15890   0.92040   0.59169  -0.5801180000
O          O       0.30815   0.87950   0.63962  -0.5658090000
O          O       0.12709   0.87267   0.55806  -1.0040010000
O          O       0.33986   0.83018   0.60820  -0.6008400000
O          O       0.30930   0.87300   0.55874  -0.5631840000
O          O       0.40945   0.67020   0.42490  -0.5802540000
O          O       0.05837   0.62997   0.47314  -0.5701660000
O          O       0.37768   0.62232   0.39128  -1.0074870000
O          O       0.09028   0.57995   0.44169  -0.6006500000
O          O       0.05875   0.62227   0.39222  -0.5645680000
O          O       0.07952   0.59051   0.34170  -0.5805760000
O          O       0.12060   0.94159   0.38976  -0.5698470000
O          O       0.12720   0.62243   0.64125  -1.0045670000
O          O       0.16986   0.90958   0.35820  -0.6016870000
O          O       0.12715   0.94129   0.64205  -0.5641410000
O          O       0.32986   0.84117   0.50831  -0.5785640000
O          O       0.36990   0.69190   0.55627  -0.5659720000
O          O       0.37776   0.87280   0.47476  -1.0084130000
O          O       0.41996   0.66026   0.52501  -0.6009390000
O          O       0.37759   0.69076   0.47530  -0.5643700000
O          O       0.17014   0.65883   0.50831  -0.5785280000
O          O       0.13009   0.80810   0.55627  -0.5660810000
O          O       0.12225   0.62720   0.47476  -1.0082610000
O          O       0.08005   0.83974   0.52501  -0.6009170000
O          O       0.12241   0.80925   0.47530  -0.5642120000
O          O       0.42048   0.90950   0.34170  -0.5804040000
O          O       0.37940   0.55841   0.38976  -0.5698030000
O          O       0.37281   0.87757   0.64124  -1.0045830000
O          O       0.33013   0.59043   0.35821  -0.6019220000
O          O       0.37285   0.55871   0.64205  -0.5641140000
O          O       0.09055   0.67020   0.42490  -0.5801470000
O          O       0.44163   0.62997   0.47314  -0.5702050000
O          O       0.12231   0.62231   0.39128  -1.0074610000
O          O       0.40972   0.57994   0.44169  -0.6007720000
O          O       0.44126   0.62227   0.39222  -0.5645930000
O          O       0.34110   0.92040   0.59169  -0.5802370000
O          O       0.19186   0.87950   0.63962  -0.5657550000
O          O       0.37291   0.87267   0.55806  -1.0040570000
O          O       0.16013   0.83018   0.60820  -0.6007460000
O          O       0.19070   0.87300   0.55874  -0.5632380000
O          O       0.15890   0.57961   0.59170  -0.5801750000
O          O       0.30815   0.62050   0.63962  -0.5656970000
O          O       0.12709   0.62733   0.55806  -1.0040500000
O          O       0.33986   0.66983   0.60820  -0.6008190000
O          O       0.30930   0.62701   0.55874  -0.5633290000
O          O       0.40945   0.82980   0.42490  -0.5800060000
O          O       0.05837   0.87003   0.47314  -0.5701460000
O          O       0.37768   0.87769   0.39127  -1.0075560000
O          O       0.09028   0.92006   0.44169  -0.6009650000
O          O       0.05874   0.87774   0.39222  -0.5647360000
O          O       0.13956   0.50000   0.61279  -0.0663720000
O          O       0.38918   0.75000   0.44596  -0.0692620000
O          O       0.11082   0.75000   0.44596  -0.0693700000
O          O       0.36044   0.50000   0.61279  -0.0662650000
O          O       0.00000   0.88915   0.36251  -0.0633940000
O          O       0.25000   0.86024   0.53066  -0.0658050000
O          O       0.00000   0.61086   0.36251  -0.0632390000
O          O       0.25000   0.63977   0.53067  -0.0658580000
O          O       0.35717   0.75000   0.58551  -0.0631620000
O          O       0.10800   0.50000   0.41882  -0.0618020000
O          O       0.39200   0.50000   0.41882  -0.0619390000
O          O       0.14283   0.75000   0.58550  -0.0632450000
O          O       0.25000   0.60794   0.33558  -0.0651910000
O          O       0.00000   0.64279   0.50211  -0.0637130000
O          O       0.25000   0.89206   0.33558  -0.0651490000
O          O      -0.00000   0.85721   0.50211  -0.0636920000
C          C       0.10367   0.55705   0.42255   0.5880130000
C          C       0.14467   0.55695   0.60980   0.5914330000
C          C       0.14999   0.52581   0.59128   0.0684490000
C          C       0.34704   0.77585   0.60733   0.0687840000
C          C       0.08266   0.51667   0.47691  -0.1697980000
C          C       0.16645   0.98334   0.55599  -0.1705860000
C          C       0.35296   0.80705   0.58907   0.5846730000
C          C       0.39508   0.80722   0.44308   0.5892660000
C          C       0.40026   0.77586   0.42488   0.0699490000
C          C       0.09818   0.52583   0.44090   0.0677960000
C          C       0.33098   0.76668   0.64292  -0.1709570000
C          C       0.41752   0.73333   0.39032  -0.1719100000
C          C       0.14704   0.69295   0.58907   0.5848460000
C          C       0.10492   0.69278   0.44308   0.5893530000
C          C       0.09974   0.72414   0.42488   0.0703490000
C          C       0.40182   0.97417   0.44090   0.0673830000
C          C       0.16901   0.73333   0.64292  -0.1707980000
C          C       0.08249   0.76666   0.39032  -0.1714770000
C          C       0.39632   0.94295   0.42255   0.5882260000
C          C       0.35533   0.94305   0.60980   0.5913940000
C          C       0.35001   0.97420   0.59128   0.0683570000
C          C       0.15296   0.72415   0.60733   0.0686480000
C          C       0.41734   0.98333   0.47691  -0.1698740000
C          C       0.33355   0.51667   0.55599  -0.1702170000
C          C       0.44293   0.85301   0.50583   0.5890980000
C          C       0.44303   0.89505   0.35979   0.5906350000
C          C       0.47421   0.89995   0.34117   0.0659590000
C          C       0.22416   0.59797   0.35755   0.0703230000
C          C       0.48333   0.83127   0.55972  -0.1702510000
C          C       0.01666   0.91673   0.63951  -0.1699640000
C          C       0.19295   0.60362   0.33915   0.5853780000
C          C       0.19276   0.64474   0.52676   0.5874240000
C          C       0.22417   0.65035   0.50907   0.0693820000
C          C       0.47416   0.84719   0.52400   0.0687640000
C          C       0.23333   0.58220   0.39336  -0.1712360000
C          C       0.26666   0.66701   0.47400  -0.1709880000
C          C       0.30705   0.89638   0.33915   0.5852420000
C          C       0.30724   0.85527   0.52676   0.5872950000
C          C       0.27583   0.84966   0.50907   0.0695500000
C          C       0.02583   0.65282   0.52400   0.0688810000
C          C       0.26668   0.91780   0.39336  -0.1713390000
C          C       0.23334   0.83299   0.47400  -0.1709820000
C          C       0.05707   0.64699   0.50584   0.5888370000
C          C       0.05697   0.60495   0.35979   0.5905890000
C          C       0.02579   0.60005   0.34118   0.0661670000
C          C       0.27585   0.90204   0.35755   0.0702680000
C          C       0.01667   0.66873   0.55972  -0.1701900000
C          C       0.48334   0.58327   0.63951  -0.1700710000
C          C       0.10368   0.94295   0.42255   0.5884780000
C          C       0.14467   0.94305   0.60980   0.5913420000
C          C       0.15000   0.97420   0.59128   0.0685880000
C          C       0.34704   0.72415   0.60733   0.0688560000
C          C       0.08266   0.98333   0.47691  -0.1700350000
C          C       0.16645   0.51667   0.55599  -0.1703260000
C          C       0.35296   0.69295   0.58908   0.5847430000
C          C       0.39508   0.69278   0.44308   0.5895590000
C          C       0.40026   0.72414   0.42488   0.0701580000
C          C       0.09818   0.97418   0.44090   0.0674350000
C          C       0.33098   0.73333   0.64292  -0.1709940000
C          C       0.41752   0.76666   0.39032  -0.1714780000
C          C       0.14703   0.80705   0.58907   0.5846950000
C          C       0.10492   0.80722   0.44308   0.5892070000
C          C       0.09974   0.77586   0.42489   0.0700580000
C          C       0.40182   0.52583   0.44090   0.0678580000
C          C       0.16901   0.76668   0.64292  -0.1710040000
C          C       0.08249   0.73333   0.39032  -0.1720220000
C          C       0.39632   0.55705   0.42255   0.5880800000
C          C       0.35533   0.55695   0.60980   0.5913010000
C          C       0.35001   0.52581   0.59128   0.0683870000
C          C       0.15296   0.77585   0.60733   0.0688620000
C          C       0.41735   0.51667   0.47691  -0.1696990000
C          C       0.33355   0.98334   0.55599  -0.1704710000
C          C       0.44293   0.64699   0.50584   0.5889600000
C          C       0.44303   0.60495   0.35979   0.5904820000
C          C       0.47420   0.60005   0.34118   0.0660850000
C          C       0.22416   0.90204   0.35755   0.0702760000
C          C       0.48333   0.66873   0.55972  -0.1702990000
C          C       0.01666   0.58327   0.63951  -0.1700930000
C          C       0.19295   0.89638   0.33915   0.5852460000
C          C       0.19277   0.85527   0.52676   0.5875420000
C          C       0.22417   0.84966   0.50907   0.0692870000
C          C       0.47416   0.65282   0.52400   0.0688210000
C          C       0.23333   0.91780   0.39336  -0.1713030000
C          C       0.26666   0.83299   0.47400  -0.1710400000
C          C       0.30705   0.60362   0.33915   0.5854610000
C          C       0.30723   0.64474   0.52676   0.5873990000
C          C       0.27583   0.65034   0.50907   0.0693870000
C          C       0.02583   0.84718   0.52400   0.0690200000
C          C       0.26667   0.58220   0.39336  -0.1713670000
C          C       0.23335   0.66701   0.47400  -0.1708410000
C          C       0.05707   0.85301   0.50584   0.5888140000
C          C       0.05697   0.89505   0.35979   0.5904570000
C          C       0.02580   0.89995   0.34117   0.0661060000
C          C       0.27584   0.59797   0.35755   0.0702550000
C          C       0.01667   0.83127   0.55972  -0.1703660000
C          C       0.48334   0.91673   0.63951  -0.1701260000
H          H       0.14265   0.62501   0.40473   0.4247070000
H          H       0.28257   0.67802   0.45195   0.1585640000
H          H       0.07241   0.96747   0.49967   0.1570440000
H          H       0.39317   0.87507   0.57180   0.4245700000
H          H       0.03257   0.92796   0.61765   0.1584110000
H          H       0.32040   0.71747   0.66541   0.1578830000
H          H       0.10683   0.62494   0.57181   0.4244890000
H          H       0.46743   0.57205   0.61765   0.1582900000
H          H       0.17960   0.78254   0.66541   0.1579330000
H          H       0.35735   0.87499   0.40472   0.4246840000
H          H       0.21743   0.82198   0.45195   0.1585250000
H          H       0.42760   0.53253   0.49967   0.1568970000
H          H       0.37521   0.89310   0.48835   0.4263560000
H          H       0.32262   0.53256   0.53384   0.1580380000
H          H       0.03253   0.82080   0.58229   0.1572080000
H          H       0.12461   0.64269   0.65494   0.4244680000
H          H       0.07096   0.78256   0.36871   0.1587880000
H          H       0.28253   0.57179   0.41600   0.1577290000
H          H       0.37539   0.85732   0.65494   0.4244230000
H          H       0.42905   0.71744   0.36871   0.1588080000
H          H       0.21748   0.92821   0.41600   0.1577080000
H          H       0.12479   0.60690   0.48835   0.4262560000
H          H       0.17738   0.96745   0.53384   0.1580510000
H          H       0.46747   0.67921   0.58229   0.1571840000
H          H       0.14265   0.87499   0.40472   0.4247810000
H          H       0.28257   0.82198   0.45195   0.1585630000
H          H       0.07240   0.53253   0.49967   0.1569760000
H          H       0.39316   0.62494   0.57181   0.4244550000
H          H       0.03257   0.57205   0.61765   0.1582730000
H          H       0.32040   0.78254   0.66540   0.1579060000
H          H       0.10683   0.87508   0.57180   0.4244600000
H          H       0.46743   0.92795   0.61765   0.1583540000
H          H       0.17960   0.71747   0.66541   0.1578740000
H          H       0.35735   0.62501   0.40473   0.4247460000
H          H       0.21743   0.67802   0.45195   0.1584920000
H          H       0.42759   0.96747   0.49967   0.1570560000
H          H       0.37520   0.60690   0.48834   0.4262080000
H          H       0.32262   0.96745   0.53384   0.1578720000
H          H       0.03253   0.67921   0.58229   0.1571100000
H          H       0.12461   0.85731   0.65494   0.4244060000
H          H       0.07096   0.71744   0.36871   0.1588280000
H          H       0.28253   0.92822   0.41600   0.1579370000
H          H       0.37539   0.64269   0.65494   0.4244880000
H          H       0.42905   0.78256   0.36871   0.1587810000
H          H       0.21748   0.57179   0.41600   0.1577180000
H          H       0.12479   0.89310   0.48835   0.4265090000
H          H       0.17738   0.53256   0.53384   0.1579740000
H          H       0.46747   0.82080   0.58229   0.1570890000
Al         Al      0.62442   0.59123   0.34936   1.6718300000
Al         Al      0.87466   0.84149   0.51616   1.6690770000
Al         Al      0.62535   0.65851   0.51616   1.6689260000
Al         Al      0.87559   0.90877   0.34936   1.6718590000
Al         Al      0.90877   0.87467   0.43279   1.6754850000
Al         Al      0.65845   0.62444   0.59948   1.6657530000
Al         Al      0.84156   0.87557   0.59948   1.6658560000
Al         Al      0.59123   0.62533   0.43279   1.6752570000
Al         Al      0.62442   0.90876   0.34936   1.6719000000
Al         Al      0.87466   0.65851   0.51616   1.6689860000
Al         Al      0.62535   0.84149   0.51616   1.6690320000
Al         Al      0.87559   0.59123   0.34936   1.6718960000
Al         Al      0.90877   0.62533   0.43279   1.6753230000
Al         Al      0.65845   0.87557   0.59948   1.6658490000
Al         Al      0.84156   0.62444   0.59948   1.6657530000
Al         Al      0.59123   0.87467   0.43279   1.6755320000
O          O       0.57951   0.90950   0.34170  -0.5802820000
O          O       0.62061   0.55841   0.38976  -0.5698160000
O          O       0.62720   0.87757   0.64124  -1.0046660000
O          O       0.66987   0.59043   0.35821  -0.6017490000
O          O       0.62715   0.55871   0.64205  -0.5641030000
O          O       0.82986   0.65883   0.50831  -0.5785060000
O          O       0.86991   0.80810   0.55627  -0.5659480000
O          O       0.87776   0.62720   0.47476  -1.0081920000
O          O       0.91995   0.83974   0.52501  -0.6012450000
O          O       0.87759   0.80925   0.47530  -0.5642920000
O          O       0.67014   0.84117   0.50831  -0.5786910000
O          O       0.63009   0.69190   0.55627  -0.5659690000
O          O       0.62224   0.87280   0.47476  -1.0085130000
O          O       0.58005   0.66027   0.52501  -0.6008790000
O          O       0.62241   0.69076   0.47530  -0.5643100000
O          O       0.92048   0.59051   0.34170  -0.5804390000
O          O       0.87940   0.94159   0.38976  -0.5698450000
O          O       0.87281   0.62243   0.64124  -1.0046280000
O          O       0.83014   0.90958   0.35821  -0.6016340000
O          O       0.87285   0.94129   0.64205  -0.5639680000
O          O       0.59056   0.82980   0.42490  -0.5800560000
O          O       0.94163   0.87003   0.47314  -0.5701370000
O          O       0.62232   0.87769   0.39128  -1.0076240000
O          O       0.90973   0.92006   0.44169  -0.6007350000
O          O       0.94126   0.87774   0.39222  -0.5647290000
O          O       0.84110   0.57961   0.59169  -0.5800640000
O          O       0.69186   0.62050   0.63962  -0.5656810000
O          O       0.87291   0.62733   0.55806  -1.0040030000
O          O       0.66014   0.66983   0.60820  -0.6008530000
O          O       0.69069   0.62701   0.55874  -0.5633090000
O          O       0.65890   0.92040   0.59169  -0.5801180000
O          O       0.80815   0.87950   0.63962  -0.5658090000
O          O       0.62710   0.87267   0.55806  -1.0040010000
O          O       0.83987   0.83018   0.60820  -0.6008400000
O          O       0.80931   0.87300   0.55874  -0.5631840000
O          O       0.90945   0.67020   0.42490  -0.5802540000
O          O       0.55837   0.62997   0.47314  -0.5701660000
O          O       0.87769   0.62232   0.39128  -1.0074870000
O          O       0.59028   0.57995   0.44169  -0.6006500000
O          O       0.55875   0.62227   0.39222  -0.5645680000
O          O       0.57952   0.59051   0.34170  -0.5805760000
O          O       0.62060   0.94159   0.38976  -0.5698470000
O          O       0.62720   0.62243   0.64125  -1.0045670000
O          O       0.66986   0.90958   0.35820  -0.6016870000
O          O       0.62715   0.94129   0.64205  -0.5641410000
O          O       0.82986   0.84117   0.50831  -0.5785640000
O          O       0.86991   0.69190   0.55627  -0.5659720000
O          O       0.87776   0.87280   0.47476  -1.0084130000
O          O       0.91996   0.66026   0.52501  -0.6009390000
O          O       0.87759   0.69076   0.47530  -0.5643700000
O          O       0.67014   0.65883   0.50831  -0.5785280000
O          O       0.63009   0.80810   0.55627  -0.5660810000
O          O       0.62225   0.62720   0.47476  -1.0082610000
O          O       0.58005   0.83974   0.52501  -0.6009170000
O          O       0.62241   0.80925   0.47530  -0.5642120000
O          O       0.92048   0.90950   0.34170  -0.5804040000
O          O       0.87940   0.55841   0.38976  -0.5698030000
O          O       0.87281   0.87757   0.64124  -1.0045830000
O          O       0.83014   0.59043   0.35821  -0.6019220000
O          O       0.87286   0.55871   0.64205  -0.5641140000
O          O       0.59055   0.67020   0.42490  -0.5801470000
O          O       0.94163   0.62997   0.47314  -0.5702050000
O          O       0.62231   0.62231   0.39128  -1.0074610000
O          O       0.90972   0.57994   0.44169  -0.6007720000
O          O       0.94126   0.62227   0.39222  -0.5645930000
O          O       0.84110   0.92040   0.59169  -0.5802370000
O          O       0.69185   0.87950   0.63962  -0.5657550000
O          O       0.87291   0.87267   0.55806  -1.0040570000
O          O       0.66014   0.83018   0.60820  -0.6007460000
O          O       0.69070   0.87300   0.55874  -0.5632380000
O          O       0.65890   0.57961   0.59170  -0.5801750000
O          O       0.80815   0.62050   0.63962  -0.5656970000
O          O       0.62709   0.62733   0.55806  -1.0040500000
O          O       0.83987   0.66983   0.60820  -0.6008190000
O          O       0.80931   0.62701   0.55874  -0.5633290000
O          O       0.90945   0.82980   0.42490  -0.5800060000
O          O       0.55837   0.87003   0.47314  -0.5701460000
O          O       0.87769   0.87769   0.39127  -1.0075560000
O          O       0.59028   0.92006   0.44169  -0.6009650000
O          O       0.55875   0.87774   0.39222  -0.5647360000
O          O       0.63957   0.50000   0.61279  -0.0663720000
O          O       0.88918   0.75000   0.44596  -0.0692620000
O          O       0.61082   0.75000   0.44596  -0.0693700000
O          O       0.86044   0.50000   0.61279  -0.0662650000
O          O       0.50000   0.88915   0.36251  -0.0633940000
O          O       0.75000   0.86024   0.53066  -0.0658050000
O          O       0.50000   0.61086   0.36251  -0.0632390000
O          O       0.75000   0.63977   0.53067  -0.0658580000
O          O       0.85717   0.75000   0.58551  -0.0631620000
O          O       0.60800   0.50000   0.41882  -0.0618020000
O          O       0.89200   0.50000   0.41882  -0.0619390000
O          O       0.64284   0.75000   0.58550  -0.0632450000
O          O       0.75000   0.60794   0.33558  -0.0651910000
O          O       0.50000   0.64279   0.50211  -0.0637130000
O          O       0.75000   0.89206   0.33558  -0.0651490000
O          O       0.50000   0.85721   0.50211  -0.0636920000
C          C       0.60367   0.55705   0.42255   0.5880130000
C          C       0.64467   0.55695   0.60980   0.5914330000
C          C       0.64999   0.52581   0.59128   0.0684490000
C          C       0.84705   0.77585   0.60733   0.0687840000
C          C       0.58266   0.51667   0.47691  -0.1697980000
C          C       0.66645   0.98334   0.55599  -0.1705860000
C          C       0.85296   0.80705   0.58907   0.5846730000
C          C       0.89508   0.80722   0.44308   0.5892660000
C          C       0.90026   0.77586   0.42488   0.0699490000
C          C       0.59818   0.52583   0.44090   0.0677960000
C          C       0.83099   0.76668   0.64292  -0.1709570000
C          C       0.91752   0.73333   0.39032  -0.1719100000
C          C       0.64704   0.69295   0.58907   0.5848460000
C          C       0.60492   0.69278   0.44308   0.5893530000
C          C       0.59974   0.72414   0.42488   0.0703490000
C          C       0.90182   0.97417   0.44090   0.0673830000
C          C       0.66902   0.73333   0.64292  -0.1707980000
C          C       0.58249   0.76666   0.39032  -0.1714770000
C          C       0.89632   0.94295   0.42255   0.5882260000
C          C       0.85533   0.94305   0.60980   0.5913940000
C          C       0.85001   0.97420   0.59128   0.0683570000
C          C       0.65296   0.72415   0.60733   0.0686480000
C          C       0.91734   0.98333   0.47691  -0.1698740000
C          C       0.83355   0.51667   0.55599  -0.1702170000
C          C       0.94293   0.85301   0.50583   0.5890980000
C          C       0.94304   0.89505   0.35979   0.5906350000
C          C       0.97421   0.89995   0.34117   0.0659590000
C          C       0.72415   0.59797   0.35755   0.0703230000
C          C       0.98333   0.83127   0.55972  -0.1702510000
C          C       0.51666   0.91673   0.63951  -0.1699640000
C          C       0.69295   0.60362   0.33915   0.5853780000
C          C       0.69276   0.64474   0.52676   0.5874240000
C          C       0.72417   0.65035   0.50907   0.0693820000
C          C       0.97417   0.84719   0.52400   0.0687640000
C          C       0.73333   0.58220   0.39336  -0.1712360000
C          C       0.76666   0.66701   0.47400  -0.1709880000
C          C       0.80705   0.89638   0.33915   0.5852420000
C          C       0.80724   0.85527   0.52676   0.5872950000
C          C       0.77584   0.84966   0.50907   0.0695500000
C          C       0.52584   0.65282   0.52400   0.0688810000
C          C       0.76668   0.91780   0.39336  -0.1713390000
C          C       0.73335   0.83299   0.47400  -0.1709820000
C          C       0.55707   0.64699   0.50584   0.5888370000
C          C       0.55697   0.60495   0.35979   0.5905890000
C          C       0.52580   0.60005   0.34118   0.0661670000
C          C       0.77585   0.90204   0.35755   0.0702680000
C          C       0.51667   0.66873   0.55972  -0.1701900000
C          C       0.98334   0.58327   0.63951  -0.1700710000
C          C       0.60368   0.94295   0.42255   0.5884780000
C          C       0.64467   0.94305   0.60980   0.5913420000
C          C       0.65000   0.97420   0.59128   0.0685880000
C          C       0.84704   0.72415   0.60733   0.0688560000
C          C       0.58266   0.98333   0.47691  -0.1700350000
C          C       0.66645   0.51667   0.55599  -0.1703260000
C          C       0.85297   0.69295   0.58908   0.5847430000
C          C       0.89508   0.69278   0.44308   0.5895590000
C          C       0.90026   0.72414   0.42488   0.0701580000
C          C       0.59818   0.97418   0.44090   0.0674350000
C          C       0.83099   0.73333   0.64292  -0.1709940000
C          C       0.91752   0.76666   0.39032  -0.1714780000
C          C       0.64703   0.80705   0.58907   0.5846950000
C          C       0.60492   0.80722   0.44308   0.5892070000
C          C       0.59974   0.77586   0.42489   0.0700580000
C          C       0.90182   0.52583   0.44090   0.0678580000
C          C       0.66902   0.76668   0.64292  -0.1710040000
C          C       0.58249   0.73333   0.39032  -0.1720220000
C          C       0.89632   0.55705   0.42255   0.5880800000
C          C       0.85533   0.55695   0.60980   0.5913010000
C          C       0.85001   0.52581   0.59128   0.0683870000
C          C       0.65296   0.77585   0.60733   0.0688620000
C          C       0.91735   0.51667   0.47691  -0.1696990000
C          C       0.83355   0.98334   0.55599  -0.1704710000
C          C       0.94293   0.64699   0.50584   0.5889600000
C          C       0.94304   0.60495   0.35979   0.5904820000
C          C       0.97421   0.60005   0.34118   0.0660850000
C          C       0.72416   0.90204   0.35755   0.0702760000
C          C       0.98333   0.66873   0.55972  -0.1702990000
C          C       0.51666   0.58327   0.63951  -0.1700930000
C          C       0.69295   0.89638   0.33915   0.5852460000
C          C       0.69276   0.85527   0.52676   0.5875420000
C          C       0.72417   0.84966   0.50907   0.0692870000
C          C       0.97417   0.65282   0.52400   0.0688210000
C          C       0.73333   0.91780   0.39336  -0.1713030000
C          C       0.76666   0.83299   0.47400  -0.1710400000
C          C       0.80705   0.60362   0.33915   0.5854610000
C          C       0.80724   0.64474   0.52676   0.5873990000
C          C       0.77583   0.65034   0.50907   0.0693870000
C          C       0.52584   0.84718   0.52400   0.0690200000
C          C       0.76667   0.58220   0.39336  -0.1713670000
C          C       0.73335   0.66701   0.47400  -0.1708410000
C          C       0.55707   0.85301   0.50584   0.5888140000
C          C       0.55697   0.89505   0.35979   0.5904570000
C          C       0.52580   0.89995   0.34117   0.0661060000
C          C       0.77585   0.59797   0.35755   0.0702550000
C          C       0.51667   0.83127   0.55972  -0.1703660000
C          C       0.98335   0.91673   0.63951  -0.1701260000
H          H       0.64265   0.62501   0.40473   0.4247070000
H          H       0.78257   0.67802   0.45195   0.1585640000
H          H       0.57241   0.96747   0.49967   0.1570440000
H          H       0.89317   0.87507   0.57180   0.4245700000
H          H       0.53257   0.92796   0.61765   0.1584110000
H          H       0.82040   0.71747   0.66541   0.1578830000
H          H       0.60684   0.62494   0.57181   0.4244890000
H          H       0.96743   0.57205   0.61765   0.1582900000
H          H       0.67960   0.78254   0.66541   0.1579330000
H          H       0.85735   0.87499   0.40472   0.4246840000
H          H       0.71743   0.82198   0.45195   0.1585250000
H          H       0.92759   0.53253   0.49967   0.1568970000
H          H       0.87521   0.89310   0.48835   0.4263560000
H          H       0.82262   0.53256   0.53384   0.1580380000
H          H       0.53253   0.82080   0.58229   0.1572080000
H          H       0.62462   0.64269   0.65494   0.4244680000
H          H       0.57096   0.78256   0.36871   0.1587880000
H          H       0.78253   0.57179   0.41600   0.1577290000
H          H       0.87539   0.85732   0.65494   0.4244230000
H          H       0.92905   0.71744   0.36871   0.1588080000
H          H       0.71747   0.92821   0.41600   0.1577080000
H          H       0.62479   0.60690   0.48835   0.4262560000
H          H       0.67739   0.96745   0.53384   0.1580510000
H          H       0.96747   0.67921   0.58229   0.1571840000
H          H       0.64266   0.87499   0.40472   0.4247810000
H          H       0.78257   0.82198   0.45195   0.1585630000
H          H       0.57241   0.53253   0.49967   0.1569760000
H          H       0.89316   0.62494   0.57181   0.4244550000
H          H       0.53257   0.57205   0.61765   0.1582730000
H          H       0.82041   0.78254   0.66540   0.1579060000
H          H       0.60684   0.87508   0.57180   0.4244600000
H          H       0.96744   0.92795   0.61765   0.1583540000
H          H       0.67960   0.71747   0.66541   0.1578740000
H          H       0.85735   0.62501   0.40473   0.4247460000
H          H       0.71743   0.67802   0.45195   0.1584920000
H          H       0.92759   0.96747   0.49967   0.1570560000
H          H       0.87520   0.60690   0.48834   0.4262080000
H          H       0.82262   0.96745   0.53384   0.1578720000
H          H       0.53253   0.67921   0.58229   0.1571100000
H          H       0.62462   0.85731   0.65494   0.4244060000
H          H       0.57096   0.71744   0.36871   0.1588280000
H          H       0.78253   0.92822   0.41600   0.1579370000
H          H       0.87539   0.64269   0.65494   0.4244880000
H          H       0.92905   0.78256   0.36871   0.1587810000
H          H       0.71748   0.57179   0.41600   0.1577180000
H          H       0.62479   0.89310   0.48835   0.4265090000
H          H       0.67738   0.53256   0.53384   0.1579740000
H          H       0.96747   0.82080   0.58229   0.1570890000
Al         Al      0.12442   0.09124   0.68269   1.6718300000
Al         Al      0.37466   0.34149   0.84950   1.6690770000
Al         Al      0.12535   0.15851   0.84950   1.6689260000
Al         Al      0.37559   0.40877   0.68269   1.6718590000
Al         Al      0.40876   0.37467   0.76612   1.6754850000
Al         Al      0.15845   0.12444   0.93282   1.6657530000
Al         Al      0.34156   0.37556   0.93282   1.6658560000
Al         Al      0.09123   0.12533   0.76613   1.6752570000
Al         Al      0.12442   0.40876   0.68269   1.6719000000
Al         Al      0.37466   0.15851   0.84950   1.6689860000
Al         Al      0.12535   0.34149   0.84950   1.6690320000
Al         Al      0.37559   0.09124   0.68269   1.6718960000
Al         Al      0.40876   0.12533   0.76613   1.6753230000
Al         Al      0.15845   0.37556   0.93282   1.6658490000
Al         Al      0.34155   0.12444   0.93282   1.6657530000
Al         Al      0.09123   0.37467   0.76613   1.6755320000
O          O       0.07952   0.40950   0.67503  -0.5802820000
O          O       0.12061   0.05842   0.72309  -0.5698160000
O          O       0.12720   0.37757   0.97458  -1.0046660000
O          O       0.16987   0.09043   0.69154  -0.6017490000
O          O       0.12715   0.05872   0.97538  -0.5641030000
O          O       0.32986   0.15884   0.84164  -0.5785060000
O          O       0.36990   0.30810   0.88960  -0.5659480000
O          O       0.37776   0.12720   0.80810  -1.0081920000
O          O       0.41995   0.33974   0.85834  -0.6012450000
O          O       0.37759   0.30924   0.80863  -0.5642920000
O          O       0.17014   0.34117   0.84164  -0.5786910000
O          O       0.13010   0.19190   0.88960  -0.5659690000
O          O       0.12224   0.37280   0.80810  -1.0085130000
O          O       0.08005   0.16027   0.85834  -0.6008790000
O          O       0.12241   0.19076   0.80864  -0.5643100000
O          O       0.42048   0.09051   0.67503  -0.5804390000
O          O       0.37940   0.44159   0.72309  -0.5698450000
O          O       0.37280   0.12243   0.97458  -1.0046280000
O          O       0.33014   0.40958   0.69154  -0.6016340000
O          O       0.37285   0.44129   0.97538  -0.5639680000
O          O       0.09056   0.32980   0.75823  -0.5800560000
O          O       0.44163   0.37003   0.80647  -0.5701370000
O          O       0.12232   0.37768   0.72461  -1.0076240000
O          O       0.40973   0.42006   0.77502  -0.6007350000
O          O       0.44126   0.37773   0.72555  -0.5647290000
O          O       0.34110   0.07961   0.92503  -0.5800640000
O          O       0.19185   0.12050   0.97295  -0.5656810000
O          O       0.37291   0.12733   0.89140  -1.0040030000
O          O       0.16013   0.16983   0.94154  -0.6008530000
O          O       0.19069   0.12701   0.89207  -0.5633090000
O          O       0.15890   0.42040   0.92503  -0.5801180000
O          O       0.30815   0.37950   0.97295  -0.5658090000
O          O       0.12710   0.37267   0.89139  -1.0040010000
O          O       0.33986   0.33018   0.94154  -0.6008400000
O          O       0.30931   0.37300   0.89207  -0.5631840000
O          O       0.40945   0.17020   0.75823  -0.5802540000
O          O       0.05837   0.12997   0.80647  -0.5701660000
O          O       0.37768   0.12231   0.72461  -1.0074870000
O          O       0.09028   0.07995   0.77502  -0.6006500000
O          O       0.05875   0.12227   0.72555  -0.5645680000
O          O       0.07952   0.09051   0.67503  -0.5805760000
O          O       0.12060   0.44159   0.72309  -0.5698470000
O          O       0.12720   0.12243   0.97458  -1.0045670000
O          O       0.16986   0.40958   0.69154  -0.6016870000
O          O       0.12715   0.44129   0.97538  -0.5641410000
O          O       0.32986   0.34117   0.84164  -0.5785640000
O          O       0.36990   0.19191   0.88960  -0.5659720000
O          O       0.37776   0.37280   0.80809  -1.0084130000
O          O       0.41996   0.16027   0.85834  -0.6009390000
O          O       0.37759   0.19075   0.80863  -0.5643700000
O          O       0.17014   0.15884   0.84164  -0.5785280000
O          O       0.13009   0.30810   0.88960  -0.5660810000
O          O       0.12225   0.12720   0.80810  -1.0082610000
O          O       0.08005   0.33974   0.85834  -0.6009170000
O          O       0.12241   0.30924   0.80864  -0.5642120000
O          O       0.42048   0.40949   0.67503  -0.5804040000
O          O       0.37940   0.05842   0.72309  -0.5698030000
O          O       0.37281   0.37757   0.97458  -1.0045830000
O          O       0.33013   0.09043   0.69154  -0.6019220000
O          O       0.37285   0.05872   0.97538  -0.5641140000
O          O       0.09055   0.17020   0.75823  -0.5801470000
O          O       0.44163   0.12998   0.80647  -0.5702050000
O          O       0.12231   0.12232   0.72461  -1.0074610000
O          O       0.40972   0.07994   0.77502  -0.6007720000
O          O       0.44126   0.12227   0.72555  -0.5645930000
O          O       0.34110   0.42040   0.92503  -0.5802370000
O          O       0.19185   0.37950   0.97295  -0.5657550000
O          O       0.37291   0.37267   0.89140  -1.0040570000
O          O       0.16013   0.33018   0.94153  -0.6007460000
O          O       0.19070   0.37300   0.89207  -0.5632380000
O          O       0.15890   0.07961   0.92503  -0.5801750000
O          O       0.30815   0.12050   0.97295  -0.5656970000
O          O       0.12710   0.12733   0.89140  -1.0040500000
O          O       0.33986   0.16983   0.94154  -0.6008190000
O          O       0.30930   0.12701   0.89207  -0.5633290000
O          O       0.40945   0.32980   0.75823  -0.5800060000
O          O       0.05837   0.37003   0.80647  -0.5701460000
O          O       0.37768   0.37768   0.72461  -1.0075560000
O          O       0.09028   0.42006   0.77502  -0.6009650000
O          O       0.05874   0.37773   0.72555  -0.5647360000
O          O       0.13956   0.00000   0.94612  -0.0663720000
O          O       0.38918   0.25000   0.77930  -0.0692620000
O          O       0.11082   0.25000   0.77930  -0.0693700000
O          O       0.36044   0.00000   0.94612  -0.0662650000
O          O       0.00000   0.38914   0.69584  -0.0633940000
O          O       0.25000   0.36024   0.86400  -0.0658050000
O          O       0.00000   0.11086   0.69584  -0.0632390000
O          O       0.25000   0.13977   0.86400  -0.0658580000
O          O       0.35717   0.25000   0.91884  -0.0631620000
O          O       0.10800  -0.00000   0.75215  -0.0618020000
O          O       0.39200  -0.00000   0.75215  -0.0619390000
O          O       0.14284   0.25000   0.91884  -0.0632450000
O          O       0.25000   0.10794   0.66891  -0.0651910000
O          O       0.00000   0.14279   0.83544  -0.0637130000
O          O       0.25000   0.39206   0.66891  -0.0651490000
O          O      -0.00000   0.35721   0.83544  -0.0636920000
C          C       0.10367   0.05704   0.75589   0.5880130000
C          C       0.14467   0.05696   0.94314   0.5914330000
C          C       0.15000   0.02581   0.92461   0.0684490000
C          C       0.34705   0.27585   0.94066   0.0687840000
C          C       0.08266   0.01666   0.81025  -0.1697980000
C          C       0.16646   0.48334   0.88933  -0.1705860000
C          C       0.35296   0.30705   0.92241   0.5846730000
C          C       0.39508   0.30722   0.77641   0.5892660000
C          C       0.40026   0.27586   0.75822   0.0699490000
C          C       0.09818   0.02583   0.77424   0.0677960000
C          C       0.33098   0.26667   0.97625  -0.1709570000
C          C       0.41752   0.23333   0.72365  -0.1719100000
C          C       0.14704   0.19296   0.92241   0.5848460000
C          C       0.10492   0.19278   0.77641   0.5893530000
C          C       0.09974   0.22414   0.75822   0.0703490000
C          C       0.40182   0.47417   0.77423   0.0673830000
C          C       0.16901   0.23332   0.97625  -0.1707980000
C          C       0.08249   0.26666   0.72365  -0.1714770000
C          C       0.39632   0.44295   0.75589   0.5882260000
C          C       0.35533   0.44304   0.94314   0.5913940000
C          C       0.35000   0.47419   0.92461   0.0683570000
C          C       0.15296   0.22415   0.94066   0.0686480000
C          C       0.41734   0.48333   0.81024  -0.1698740000
C          C       0.33355   0.01667   0.88932  -0.1702170000
C          C       0.44293   0.35301   0.83917   0.5890980000
C          C       0.44304   0.39505   0.69312   0.5906350000
C          C       0.47421   0.39995   0.67451   0.0659590000
C          C       0.22416   0.09797   0.69088   0.0703230000
C          C       0.48333   0.33127   0.89305  -0.1702510000
C          C       0.01666   0.41673   0.97284  -0.1699640000
C          C       0.19295   0.10362   0.67248   0.5853780000
C          C       0.19276   0.14474   0.86010   0.5874240000
C          C       0.22417   0.15035   0.84240   0.0693820000
C          C       0.47417   0.34719   0.85734   0.0687640000
C          C       0.23333   0.08220   0.72670  -0.1712360000
C          C       0.26666   0.16701   0.80733  -0.1709880000
C          C       0.30705   0.39638   0.67248   0.5852420000
C          C       0.30723   0.35526   0.86010   0.5872950000
C          C       0.27583   0.34966   0.84240   0.0695500000
C          C       0.02584   0.15282   0.85734   0.0688810000
C          C       0.26667   0.41780   0.72670  -0.1713390000
C          C       0.23334   0.33299   0.80733  -0.1709820000
C          C       0.05707   0.14700   0.83917   0.5888370000
C          C       0.05697   0.10495   0.69313   0.5905890000
C          C       0.02579   0.10005   0.67451   0.0661670000
C          C       0.27585   0.40203   0.69088   0.0702680000
C          C       0.01667   0.16873   0.89305  -0.1701900000
C          C       0.48334   0.08327   0.97285  -0.1700710000
C          C       0.10368   0.44295   0.75589   0.5884780000
C          C       0.14467   0.44305   0.94313   0.5913420000
C          C       0.15000   0.47419   0.92461   0.0685880000
C          C       0.34704   0.22415   0.94066   0.0688560000
C          C       0.08266   0.48333   0.81024  -0.1700350000
C          C       0.16645   0.01667   0.88933  -0.1703260000
C          C       0.35296   0.19295   0.92241   0.5847430000
C          C       0.39508   0.19278   0.77641   0.5895590000
C          C       0.40026   0.22414   0.75822   0.0701580000
C          C       0.09818   0.47418   0.77423   0.0674350000
C          C       0.33098   0.23332   0.97625  -0.1709940000
C          C       0.41752   0.26666   0.72365  -0.1714780000
C          C       0.14703   0.30705   0.92241   0.5846950000
C          C       0.10492   0.30722   0.77641   0.5892070000
C          C       0.09974   0.27585   0.75822   0.0700580000
C          C       0.40182   0.02583   0.77424   0.0678580000
C          C       0.16901   0.26667   0.97625  -0.1710040000
C          C       0.08249   0.23333   0.72365  -0.1720220000
C          C       0.39632   0.05704   0.75589   0.5880800000
C          C       0.35533   0.05696   0.94314   0.5913010000
C          C       0.35000   0.02581   0.92461   0.0683870000
C          C       0.15296   0.27585   0.94066   0.0688620000
C          C       0.41735   0.01666   0.81025  -0.1696990000
C          C       0.33355   0.48334   0.88933  -0.1704710000
C          C       0.44293   0.14699   0.83917   0.5889600000
C          C       0.44304   0.10495   0.69312   0.5904820000
C          C       0.47421   0.10005   0.67451   0.0660850000
C          C       0.22415   0.40203   0.69088   0.0702760000
C          C       0.48333   0.16873   0.89305  -0.1702990000
C          C       0.01666   0.08327   0.97285  -0.1700930000
C          C       0.19295   0.39638   0.67248   0.5852460000
C          C       0.19276   0.35526   0.86009   0.5875420000
C          C       0.22417   0.34966   0.84240   0.0692870000
C          C       0.47417   0.15282   0.85734   0.0688210000
C          C       0.23333   0.41780   0.72670  -0.1713030000
C          C       0.26666   0.33299   0.80733  -0.1710400000
C          C       0.30705   0.10362   0.67248   0.5854610000
C          C       0.30723   0.14474   0.86010   0.5873990000
C          C       0.27583   0.15034   0.84240   0.0693870000
C          C       0.02584   0.34718   0.85734   0.0690200000
C          C       0.26667   0.08220   0.72670  -0.1713670000
C          C       0.23335   0.16701   0.80733  -0.1708410000
C          C       0.05707   0.35300   0.83917   0.5888140000
C          C       0.05697   0.39505   0.69312   0.5904570000
C          C       0.02580   0.39995   0.67451   0.0661060000
C          C       0.27585   0.09797   0.69088   0.0702550000
C          C       0.01667   0.33127   0.89305  -0.1703660000
C          C       0.48334   0.41673   0.97284  -0.1701260000
H          H       0.14265   0.12501   0.73806   0.4247070000
H          H       0.28257   0.17803   0.78528   0.1585640000
H          H       0.07241   0.46747   0.83300   0.1570440000
H          H       0.39317   0.37507   0.90514   0.4245700000
H          H       0.03257   0.42796   0.95098   0.1584110000
H          H       0.32040   0.21747   0.99874   0.1578830000
H          H       0.10683   0.12494   0.90514   0.4244890000
H          H       0.46743   0.07204   0.95099   0.1582900000
H          H       0.17960   0.28253   0.99874   0.1579330000
H          H       0.35735   0.37499   0.73805   0.4246840000
H          H       0.21743   0.32198   0.78528   0.1585250000
H          H       0.42760   0.03253   0.83301   0.1568970000
H          H       0.37521   0.39310   0.82168   0.4263560000
H          H       0.32262   0.03256   0.86717   0.1580380000
H          H       0.03253   0.32079   0.91562   0.1572080000
H          H       0.12462   0.14269   0.98828   0.4244680000
H          H       0.07096   0.28256   0.70205   0.1587880000
H          H       0.28253   0.07179   0.74933   0.1577290000
H          H       0.37539   0.35732   0.98827   0.4244230000
H          H       0.42905   0.21744   0.70204   0.1588080000
H          H       0.21748   0.42821   0.74933   0.1577080000
H          H       0.12480   0.10690   0.82168   0.4262560000
H          H       0.17738   0.46745   0.86717   0.1580510000
H          H       0.46747   0.17921   0.91562   0.1571840000
H          H       0.14266   0.37499   0.73806   0.4247810000
H          H       0.28257   0.32198   0.78528   0.1585630000
H          H       0.07240   0.03252   0.83300   0.1569760000
H          H       0.39316   0.12494   0.90514   0.4244550000
H          H       0.03257   0.07204   0.95099   0.1582730000
H          H       0.32040   0.28253   0.99874   0.1579060000
H          H       0.10683   0.37507   0.90514   0.4244600000
H          H       0.46743   0.42795   0.95098   0.1583540000
H          H       0.17960   0.21747   0.99874   0.1578740000
H          H       0.35735   0.12501   0.73806   0.4247460000
H          H       0.21743   0.17803   0.78528   0.1584920000
H          H       0.42759   0.46747   0.83300   0.1570560000
H          H       0.37520   0.10690   0.82168   0.4262080000
H          H       0.32262   0.46745   0.86717   0.1578720000
H          H       0.03253   0.17921   0.91562   0.1571100000
H          H       0.12462   0.35731   0.98827   0.4244060000
H          H       0.07096   0.21744   0.70204   0.1588280000
H          H       0.28253   0.42822   0.74933   0.1579370000
H          H       0.37539   0.14269   0.98827   0.4244880000
H          H       0.42905   0.28256   0.70204   0.1587810000
H          H       0.21747   0.07179   0.74933   0.1577180000
H          H       0.12480   0.39310   0.82168   0.4265090000
H          H       0.17738   0.03256   0.86718   0.1579740000
H          H       0.46747   0.32079   0.91562   0.1570890000
Al         Al      0.62442   0.09124   0.68269   1.6718300000
Al         Al      0.87465   0.34149   0.84950   1.6690770000
Al         Al      0.62535   0.15851   0.84950   1.6689260000
Al         Al      0.87559   0.40877   0.68269   1.6718590000
Al         Al      0.90876   0.37467   0.76612   1.6754850000
Al         Al      0.65845   0.12444   0.93282   1.6657530000
Al         Al      0.84156   0.37556   0.93282   1.6658560000
Al         Al      0.59123   0.12533   0.76613   1.6752570000
Al         Al      0.62442   0.40876   0.68269   1.6719000000
Al         Al      0.87465   0.15851   0.84950   1.6689860000
Al         Al      0.62535   0.34149   0.84950   1.6690320000
Al         Al      0.87559   0.09124   0.68269   1.6718960000
Al         Al      0.90876   0.12533   0.76613   1.6753230000
Al         Al      0.65845   0.37556   0.93282   1.6658490000
Al         Al      0.84156   0.12444   0.93282   1.6657530000
Al         Al      0.59123   0.37467   0.76613   1.6755320000
O          O       0.57952   0.40950   0.67503  -0.5802820000
O          O       0.62060   0.05842   0.72309  -0.5698160000
O          O       0.62720   0.37757   0.97458  -1.0046660000
O          O       0.66986   0.09043   0.69154  -0.6017490000
O          O       0.62715   0.05872   0.97538  -0.5641030000
O          O       0.82986   0.15884   0.84164  -0.5785060000
O          O       0.86991   0.30810   0.88960  -0.5659480000
O          O       0.87776   0.12720   0.80810  -1.0081920000
O          O       0.91995   0.33974   0.85834  -0.6012450000
O          O       0.87759   0.30924   0.80863  -0.5642920000
O          O       0.67014   0.34117   0.84164  -0.5786910000
O          O       0.63009   0.19190   0.88960  -0.5659690000
O          O       0.62224   0.37280   0.80810  -1.0085130000
O          O       0.58005   0.16027   0.85834  -0.6008790000
O          O       0.62241   0.19076   0.80864  -0.5643100000
O          O       0.92048   0.09051   0.67503  -0.5804390000
O          O       0.87940   0.44159   0.72309  -0.5698450000
O          O       0.87281   0.12243   0.97458  -1.0046280000
O          O       0.83014   0.40958   0.69154  -0.6016340000
O          O       0.87285   0.44129   0.97538  -0.5639680000
O          O       0.59055   0.32980   0.75823  -0.5800560000
O          O       0.94163   0.37003   0.80647  -0.5701370000
O          O       0.62232   0.37768   0.72461  -1.0076240000
O          O       0.90973   0.42006   0.77502  -0.6007350000
O          O       0.94126   0.37773   0.72555  -0.5647290000
O          O       0.84110   0.07961   0.92503  -0.5800640000
O          O       0.69185   0.12050   0.97295  -0.5656810000
O          O       0.87291   0.12733   0.89140  -1.0040030000
O          O       0.66014   0.16983   0.94154  -0.6008530000
O          O       0.69069   0.12701   0.89207  -0.5633090000
O          O       0.65891   0.42040   0.92503  -0.5801180000
O          O       0.80815   0.37950   0.97295  -0.5658090000
O          O       0.62710   0.37267   0.89139  -1.0040010000
O          O       0.83986   0.33018   0.94154  -0.6008400000
O          O       0.80930   0.37300   0.89207  -0.5631840000
O          O       0.90945   0.17020   0.75823  -0.5802540000
O          O       0.55837   0.12997   0.80647  -0.5701660000
O          O       0.87768   0.12231   0.72461  -1.0074870000
O          O       0.59028   0.07995   0.77502  -0.6006500000
O          O       0.55875   0.12227   0.72555  -0.5645680000
O          O       0.57952   0.09051   0.67503  -0.5805760000
O          O       0.62060   0.44159   0.72309  -0.5698470000
O          O       0.62720   0.12243   0.97458  -1.0045670000
O          O       0.66986   0.40958   0.69154  -0.6016870000
O          O       0.62715   0.44129   0.97538  -0.5641410000
O          O       0.82986   0.34117   0.84164  -0.5785640000
O          O       0.86991   0.19191   0.88960  -0.5659720000
O          O       0.87776   0.37280   0.80809  -1.0084130000
O          O       0.91995   0.16027   0.85834  -0.6009390000
O          O       0.87759   0.19075   0.80863  -0.5643700000
O          O       0.67014   0.15884   0.84164  -0.5785280000
O          O       0.63010   0.30810   0.88960  -0.5660810000
O          O       0.62225   0.12720   0.80810  -1.0082610000
O          O       0.58005   0.33974   0.85834  -0.6009170000
O          O       0.62241   0.30924   0.80864  -0.5642120000
O          O       0.92048   0.40949   0.67503  -0.5804040000
O          O       0.87940   0.05842   0.72309  -0.5698030000
O          O       0.87281   0.37757   0.97458  -1.0045830000
O          O       0.83014   0.09043   0.69154  -0.6019220000
O          O       0.87285   0.05872   0.97538  -0.5641140000
O          O       0.59055   0.17020   0.75823  -0.5801470000
O          O       0.94163   0.12998   0.80647  -0.5702050000
O          O       0.62232   0.12232   0.72461  -1.0074610000
O          O       0.90972   0.07994   0.77502  -0.6007720000
O          O       0.94126   0.12227   0.72555  -0.5645930000
O          O       0.84110   0.42040   0.92503  -0.5802370000
O          O       0.69185   0.37950   0.97295  -0.5657550000
O          O       0.87291   0.37267   0.89140  -1.0040570000
O          O       0.66014   0.33018   0.94153  -0.6007460000
O          O       0.69070   0.37300   0.89207  -0.5632380000
O          O       0.65890   0.07961   0.92503  -0.5801750000
O          O       0.80815   0.12050   0.97295  -0.5656970000
O          O       0.62709   0.12733   0.89140  -1.0040500000
O          O       0.83986   0.16983   0.94154  -0.6008190000
O          O       0.80930   0.12701   0.89207  -0.5633290000
O          O       0.90945   0.32980   0.75823  -0.5800060000
O          O       0.55837   0.37003   0.80647  -0.5701460000
O          O       0.87768   0.37768   0.72461  -1.0075560000
O          O       0.59028   0.42006   0.77502  -0.6009650000
O          O       0.55874   0.37773   0.72555  -0.5647360000
O          O       0.63957   0.00000   0.94612  -0.0663720000
O          O       0.88918   0.25000   0.77930  -0.0692620000
O          O       0.61082   0.25000   0.77930  -0.0693700000
O          O       0.86043   0.00000   0.94612  -0.0662650000
O          O       0.50000   0.38914   0.69584  -0.0633940000
O          O       0.75000   0.36024   0.86400  -0.0658050000
O          O       0.50000   0.11086   0.69584  -0.0632390000
O          O       0.75000   0.13977   0.86400  -0.0658580000
O          O       0.85717   0.25000   0.91884  -0.0631620000
O          O       0.60800  -0.00000   0.75215  -0.0618020000
O          O       0.89200  -0.00000   0.75215  -0.0619390000
O          O       0.64284   0.25000   0.91884  -0.0632450000
O          O       0.75000   0.10794   0.66891  -0.0651910000
O          O       0.50000   0.14279   0.83544  -0.0637130000
O          O       0.75000   0.39206   0.66891  -0.0651490000
O          O       0.50000   0.35721   0.83544  -0.0636920000
C          C       0.60368   0.05704   0.75589   0.5880130000
C          C       0.64467   0.05696   0.94314   0.5914330000
C          C       0.64999   0.02581   0.92461   0.0684490000
C          C       0.84705   0.27585   0.94066   0.0687840000
C          C       0.58266   0.01666   0.81025  -0.1697980000
C          C       0.66646   0.48334   0.88933  -0.1705860000
C          C       0.85296   0.30705   0.92241   0.5846730000
C          C       0.89508   0.30722   0.77641   0.5892660000
C          C       0.90026   0.27586   0.75822   0.0699490000
C          C       0.59818   0.02583   0.77424   0.0677960000
C          C       0.83098   0.26667   0.97625  -0.1709570000
C          C       0.91752   0.23333   0.72365  -0.1719100000
C          C       0.64704   0.19296   0.92241   0.5848460000
C          C       0.60492   0.19278   0.77641   0.5893530000
C          C       0.59974   0.22414   0.75822   0.0703490000
C          C       0.90182   0.47417   0.77423   0.0673830000
C          C       0.66902   0.23332   0.97625  -0.1707980000
C          C       0.58249   0.26666   0.72365  -0.1714770000
C          C       0.89632   0.44295   0.75589   0.5882260000
C          C       0.85533   0.44304   0.94314   0.5913940000
C          C       0.85001   0.47419   0.92461   0.0683570000
C          C       0.65296   0.22415   0.94066   0.0686480000
C          C       0.91734   0.48333   0.81024  -0.1698740000
C          C       0.83355   0.01667   0.88932  -0.1702170000
C          C       0.94293   0.35301   0.83917   0.5890980000
C          C       0.94303   0.39505   0.69312   0.5906350000
C          C       0.97420   0.39995   0.67451   0.0659590000
C          C       0.72415   0.09797   0.69088   0.0703230000
C          C       0.98333   0.33127   0.89305  -0.1702510000
C          C       0.51666   0.41673   0.97284  -0.1699640000
C          C       0.69295   0.10362   0.67248   0.5853780000
C          C       0.69276   0.14474   0.86010   0.5874240000
C          C       0.72417   0.15035   0.84240   0.0693820000
C          C       0.97417   0.34719   0.85734   0.0687640000
C          C       0.73333   0.08220   0.72670  -0.1712360000
C          C       0.76666   0.16701   0.80733  -0.1709880000
C          C       0.80705   0.39638   0.67248   0.5852420000
C          C       0.80724   0.35526   0.86010   0.5872950000
C          C       0.77584   0.34966   0.84240   0.0695500000
C          C       0.52584   0.15282   0.85734   0.0688810000
C          C       0.76668   0.41780   0.72670  -0.1713390000
C          C       0.73334   0.33299   0.80733  -0.1709820000
C          C       0.55707   0.14700   0.83917   0.5888370000
C          C       0.55697   0.10495   0.69313   0.5905890000
C          C       0.52580   0.10005   0.67451   0.0661670000
C          C       0.77585   0.40203   0.69088   0.0702680000
C          C       0.51667   0.16873   0.89305  -0.1701900000
C          C       0.98334   0.08327   0.97285  -0.1700710000
C          C       0.60368   0.44295   0.75589   0.5884780000
C          C       0.64467   0.44305   0.94313   0.5913420000
C          C       0.65000   0.47419   0.92461   0.0685880000
C          C       0.84704   0.22415   0.94066   0.0688560000
C          C       0.58266   0.48333   0.81024  -0.1700350000
C          C       0.66645   0.01667   0.88933  -0.1703260000
C          C       0.85297   0.19295   0.92241   0.5847430000
C          C       0.89508   0.19278   0.77641   0.5895590000
C          C       0.90026   0.22414   0.75822   0.0701580000
C          C       0.59818   0.47418   0.77423   0.0674350000
C          C       0.83098   0.23332   0.97625  -0.1709940000
C          C       0.91752   0.26666   0.72365  -0.1714780000
C          C       0.64704   0.30705   0.92241   0.5846950000
C          C       0.60492   0.30722   0.77641   0.5892070000
C          C       0.59974   0.27585   0.75822   0.0700580000
C          C       0.90182   0.02583   0.77424   0.0678580000
C          C       0.66902   0.26667   0.97625  -0.1710040000
C          C       0.58249   0.23333   0.72365  -0.1720220000
C          C       0.89632   0.05704   0.75589   0.5880800000
C          C       0.85533   0.05696   0.94314   0.5913010000
C          C       0.85001   0.02581   0.92461   0.0683870000
C          C       0.65296   0.27585   0.94066   0.0688620000
C          C       0.91735   0.01666   0.81025  -0.1696990000
C          C       0.83355   0.48334   0.88933  -0.1704710000
C          C       0.94293   0.14699   0.83917   0.5889600000
C          C       0.94303   0.10495   0.69312   0.5904820000
C          C       0.97420   0.10005   0.67451   0.0660850000
C          C       0.72416   0.40203   0.69088   0.0702760000
C          C       0.98333   0.16873   0.89305  -0.1702990000
C          C       0.51666   0.08327   0.97285  -0.1700930000
C          C       0.69295   0.39638   0.67248   0.5852460000
C          C       0.69276   0.35526   0.86009   0.5875420000
C          C       0.72417   0.34966   0.84240   0.0692870000
C          C       0.97417   0.15282   0.85734   0.0688210000
C          C       0.73333   0.41780   0.72670  -0.1713030000
C          C       0.76666   0.33299   0.80733  -0.1710400000
C          C       0.80705   0.10362   0.67248   0.5854610000
C          C       0.80723   0.14474   0.86010   0.5873990000
C          C       0.77583   0.15034   0.84240   0.0693870000
C          C       0.52584   0.34718   0.85734   0.0690200000
C          C       0.76667   0.08220   0.72670  -0.1713670000
C          C       0.73335   0.16701   0.80733  -0.1708410000
C          C       0.55707   0.35300   0.83917   0.5888140000
C          C       0.55697   0.39505   0.69312   0.5904570000
C          C       0.52580   0.39995   0.67451   0.0661060000
C          C       0.77585   0.09797   0.69088   0.0702550000
C          C       0.51667   0.33127   0.89305  -0.1703660000
C          C       0.98335   0.41673   0.97284  -0.1701260000
H          H       0.64265   0.12501   0.73806   0.4247070000
H          H       0.78257   0.17803   0.78528   0.1585640000
H          H       0.57241   0.46747   0.83300   0.1570440000
H          H       0.89317   0.37507   0.90514   0.4245700000
H          H       0.53257   0.42796   0.95098   0.1584110000
H          H       0.82040   0.21747   0.99874   0.1578830000
H          H       0.60684   0.12494   0.90514   0.4244890000
H          H       0.96743   0.07204   0.95099   0.1582900000
H          H       0.67960   0.28253   0.99874   0.1579330000
H          H       0.85735   0.37499   0.73805   0.4246840000
H          H       0.71743   0.32198   0.78528   0.1585250000
H          H       0.92759   0.03253   0.83301   0.1568970000
H          H       0.87521   0.39310   0.82168   0.4263560000
H          H       0.82262   0.03256   0.86717   0.1580380000
H          H       0.53253   0.32079   0.91562   0.1572080000
H          H       0.62462   0.14269   0.98828   0.4244680000
H          H       0.57096   0.28256   0.70205   0.1587880000
H          H       0.78253   0.07179   0.74933   0.1577290000
H          H       0.87539   0.35732   0.98827   0.4244230000
H          H       0.92905   0.21744   0.70204   0.1588080000
H          H       0.71748   0.42821   0.74933   0.1577080000
H          H       0.62479   0.10690   0.82168   0.4262560000
H          H       0.67739   0.46745   0.86717   0.1580510000
H          H       0.96747   0.17921   0.91562   0.1571840000
H          H       0.64266   0.37499   0.73806   0.4247810000
H          H       0.78257   0.32198   0.78528   0.1585630000
H          H       0.57241   0.03252   0.83300   0.1569760000
H          H       0.89316   0.12494   0.90514   0.4244550000
H          H       0.53257   0.07204   0.95099   0.1582730000
H          H       0.82040   0.28253   0.99874   0.1579060000
H          H       0.60684   0.37507   0.90514   0.4244600000
H          H       0.96744   0.42795   0.95098   0.1583540000
H          H       0.67960   0.21747   0.99874   0.1578740000
H          H       0.85735   0.12501   0.73806   0.4247460000
H          H       0.71743   0.17803   0.78528   0.1584920000
H          H       0.92759   0.46747   0.83300   0.1570560000
H          H       0.87520   0.10690   0.82168   0.4262080000
H          H       0.82262   0.46745   0.86717   0.1578720000
H          H       0.53253   0.17921   0.91562   0.1571100000
H          H       0.62462   0.35731   0.98827   0.4244060000
H          H       0.57096   0.21744   0.70204   0.1588280000
H          H       0.78253   0.42822   0.74933   0.1579370000
H          H       0.87539   0.14269   0.98827   0.4244880000
H          H       0.92905   0.28256   0.70204   0.1587810000
H          H       0.71747   0.07179   0.74933   0.1577180000
H          H       0.62479   0.39310   0.82168   0.4265090000
H          H       0.67738   0.03256   0.86718   0.1579740000
H          H       0.96747   0.32079   0.91562   0.1570890000
Al         Al      0.12442   0.59123   0.68269   1.6718300000
Al         Al      0.37466   0.84149   0.84950   1.6690770000
Al         Al      0.12535   0.65851   0.84950   1.6689260000
Al         Al      0.37559   0.90877   0.68269   1.6718590000
Al         Al      0.40876   0.87467   0.76612   1.6754850000
Al         Al      0.15845   0.62444   0.93282   1.6657530000
Al         Al      0.34156   0.87556   0.93282   1.6658560000
Al         Al      0.09123   0.62533   0.76613   1.6752570000
Al         Al      0.12442   0.90876   0.68269   1.6719000000
Al         Al      0.37465   0.65851   0.84950   1.6689860000
Al         Al      0.12535   0.84149   0.84950   1.6690320000
Al         Al      0.37559   0.59123   0.68269   1.6718960000
Al         Al      0.40876   0.62533   0.76613   1.6753230000
Al         Al      0.15845   0.87556   0.93282   1.6658490000
Al         Al      0.34155   0.62444   0.93282   1.6657530000
Al         Al      0.09123   0.87467   0.76613   1.6755320000
O          O       0.07952   0.90950   0.67503  -0.5802820000
O          O       0.12061   0.55841   0.72309  -0.5698160000
O          O       0.12720   0.87757   0.97458  -1.0046660000
O          O       0.16986   0.59042   0.69154  -0.6017490000
O          O       0.12715   0.55871   0.97538  -0.5641030000
O          O       0.32986   0.65883   0.84164  -0.5785060000
O          O       0.36990   0.80810   0.88960  -0.5659480000
O          O       0.37775   0.62720   0.80810  -1.0081920000
O          O       0.41995   0.83974   0.85834  -0.6012450000
O          O       0.37759   0.80924   0.80863  -0.5642920000
O          O       0.17014   0.84117   0.84164  -0.5786910000
O          O       0.13009   0.69190   0.88960  -0.5659690000
O          O       0.12224   0.87280   0.80810  -1.0085130000
O          O       0.08005   0.66027   0.85834  -0.6008790000
O          O       0.12241   0.69076   0.80864  -0.5643100000
O          O       0.42048   0.59051   0.67503  -0.5804390000
O          O       0.37940   0.94159   0.72309  -0.5698450000
O          O       0.37280   0.62243   0.97458  -1.0046280000
O          O       0.33014   0.90958   0.69154  -0.6016340000
O          O       0.37285   0.94129   0.97538  -0.5639680000
O          O       0.09055   0.82980   0.75823  -0.5800560000
O          O       0.44163   0.87003   0.80647  -0.5701370000
O          O       0.12232   0.87769   0.72461  -1.0076240000
O          O       0.40973   0.92006   0.77502  -0.6007350000
O          O       0.44126   0.87773   0.72555  -0.5647290000
O          O       0.34110   0.57961   0.92503  -0.5800640000
O          O       0.19186   0.62050   0.97295  -0.5656810000
O          O       0.37291   0.62733   0.89140  -1.0040030000
O          O       0.16013   0.66983   0.94154  -0.6008530000
O          O       0.19070   0.62701   0.89207  -0.5633090000
O          O       0.15890   0.92039   0.92503  -0.5801180000
O          O       0.30815   0.87950   0.97295  -0.5658090000
O          O       0.12709   0.87267   0.89139  -1.0040010000
O          O       0.33986   0.83017   0.94154  -0.6008400000
O          O       0.30930   0.87300   0.89207  -0.5631840000
O          O       0.40945   0.67019   0.75823  -0.5802540000
O          O       0.05837   0.62997   0.80647  -0.5701660000
O          O       0.37768   0.62232   0.72461  -1.0074870000
O          O       0.09028   0.57995   0.77502  -0.6006500000
O          O       0.05875   0.62227   0.72555  -0.5645680000
O          O       0.07952   0.59051   0.67503  -0.5805760000
O          O       0.12060   0.94159   0.72309  -0.5698470000
O          O       0.12720   0.62243   0.97458  -1.0045670000
O          O       0.16986   0.90958   0.69154  -0.6016870000
O          O       0.12715   0.94129   0.97538  -0.5641410000
O          O       0.32986   0.84117   0.84164  -0.5785640000
O          O       0.36990   0.69190   0.88960  -0.5659720000
O          O       0.37776   0.87280   0.80809  -1.0084130000
O          O       0.41996   0.66026   0.85834  -0.6009390000
O          O       0.37759   0.69076   0.80863  -0.5643700000
O          O       0.17014   0.65883   0.84164  -0.5785280000
O          O       0.13009   0.80810   0.88960  -0.5660810000
O          O       0.12225   0.62720   0.80810  -1.0082610000
O          O       0.08005   0.83974   0.85834  -0.6009170000
O          O       0.12241   0.80925   0.80864  -0.5642120000
O          O       0.42048   0.90949   0.67503  -0.5804040000
O          O       0.37940   0.55841   0.72309  -0.5698030000
O          O       0.37280   0.87757   0.97458  -1.0045830000
O          O       0.33013   0.59043   0.69154  -0.6019220000
O          O       0.37285   0.55871   0.97538  -0.5641140000
O          O       0.09055   0.67020   0.75823  -0.5801470000
O          O       0.44163   0.62997   0.80647  -0.5702050000
O          O       0.12231   0.62231   0.72461  -1.0074610000
O          O       0.40972   0.57994   0.77502  -0.6007720000
O          O       0.44126   0.62227   0.72555  -0.5645930000
O          O       0.34110   0.92039   0.92503  -0.5802370000
O          O       0.19185   0.87950   0.97295  -0.5657550000
O          O       0.37291   0.87267   0.89140  -1.0040570000
O          O       0.16013   0.83018   0.94153  -0.6007460000
O          O       0.19070   0.87300   0.89207  -0.5632380000
O          O       0.15890   0.57961   0.92503  -0.5801750000
O          O       0.30815   0.62050   0.97295  -0.5656970000
O          O       0.12710   0.62733   0.89140  -1.0040500000
O          O       0.33986   0.66983   0.94154  -0.6008190000
O          O       0.30930   0.62701   0.89207  -0.5633290000
O          O       0.40945   0.82980   0.75823  -0.5800060000
O          O       0.05837   0.87003   0.80647  -0.5701460000
O          O       0.37768   0.87769   0.72461  -1.0075560000
O          O       0.09028   0.92006   0.77502  -0.6009650000
O          O       0.05874   0.87773   0.72555  -0.5647360000
O          O       0.13956   0.50000   0.94612  -0.0663720000
O          O       0.38918   0.75000   0.77930  -0.0692620000
O          O       0.11082   0.75000   0.77930  -0.0693700000
O          O       0.36044   0.50000   0.94612  -0.0662650000
O          O      -0.00000   0.88915   0.69584  -0.0633940000
O          O       0.25000   0.86024   0.86400  -0.0658050000
O          O       0.00000   0.61086   0.69584  -0.0632390000
O          O       0.25000   0.63977   0.86400  -0.0658580000
O          O       0.35717   0.75000   0.91884  -0.0631620000
O          O       0.10800   0.50000   0.75215  -0.0618020000
O          O       0.39200   0.50000   0.75215  -0.0619390000
O          O       0.14283   0.75000   0.91884  -0.0632450000
O          O       0.25000   0.60794   0.66891  -0.0651910000
O          O      -0.00000   0.64279   0.83544  -0.0637130000
O          O       0.25000   0.89206   0.66891  -0.0651490000
O          O      -0.00000   0.85721   0.83544  -0.0636920000
C          C       0.10367   0.55704   0.75589   0.5880130000
C          C       0.14467   0.55695   0.94314   0.5914330000
C          C       0.15000   0.52581   0.92461   0.0684490000
C          C       0.34705   0.77585   0.94066   0.0687840000
C          C       0.08266   0.51667   0.81025  -0.1697980000
C          C       0.16645   0.98334   0.88933  -0.1705860000
C          C       0.35296   0.80705   0.92241   0.5846730000
C          C       0.39508   0.80722   0.77641   0.5892660000
C          C       0.40026   0.77586   0.75822   0.0699490000
C          C       0.09818   0.52583   0.77424   0.0677960000
C          C       0.33098   0.76667   0.97625  -0.1709570000
C          C       0.41752   0.73333   0.72365  -0.1719100000
C          C       0.14704   0.69295   0.92241   0.5848460000
C          C       0.10492   0.69278   0.77641   0.5893530000
C          C       0.09974   0.72414   0.75822   0.0703490000
C          C       0.40182   0.97417   0.77423   0.0673830000
C          C       0.16901   0.73333   0.97625  -0.1707980000
C          C       0.08249   0.76666   0.72365  -0.1714770000
C          C       0.39632   0.94295   0.75589   0.5882260000
C          C       0.35533   0.94305   0.94314   0.5913940000
C          C       0.35001   0.97419   0.92461   0.0683570000
C          C       0.15296   0.72415   0.94066   0.0686480000
C          C       0.41734   0.98333   0.81024  -0.1698740000
C          C       0.33355   0.51667   0.88932  -0.1702170000
C          C       0.44293   0.85301   0.83917   0.5890980000
C          C       0.44303   0.89505   0.69312   0.5906350000
C          C       0.47420   0.89995   0.67451   0.0659590000
C          C       0.22416   0.59797   0.69088   0.0703230000
C          C       0.48333   0.83127   0.89305  -0.1702510000
C          C       0.01666   0.91672   0.97284  -0.1699640000
C          C       0.19295   0.60362   0.67248   0.5853780000
C          C       0.19276   0.64474   0.86010   0.5874240000
C          C       0.22417   0.65035   0.84240   0.0693820000
C          C       0.47416   0.84718   0.85734   0.0687640000
C          C       0.23333   0.58220   0.72670  -0.1712360000
C          C       0.26666   0.66701   0.80733  -0.1709880000
C          C       0.30705   0.89638   0.67248   0.5852420000
C          C       0.30723   0.85527   0.86010   0.5872950000
C          C       0.27583   0.84966   0.84240   0.0695500000
C          C       0.02584   0.65282   0.85734   0.0688810000
C          C       0.26667   0.91780   0.72670  -0.1713390000
C          C       0.23334   0.83299   0.80733  -0.1709820000
C          C       0.05707   0.64699   0.83917   0.5888370000
C          C       0.05697   0.60495   0.69313   0.5905890000
C          C       0.02579   0.60005   0.67451   0.0661670000
C          C       0.27585   0.90204   0.69088   0.0702680000
C          C       0.01667   0.66873   0.89305  -0.1701900000
C          C       0.48334   0.58327   0.97285  -0.1700710000
C          C       0.10368   0.94295   0.75589   0.5884780000
C          C       0.14467   0.94305   0.94313   0.5913420000
C          C       0.15000   0.97419   0.92461   0.0685880000
C          C       0.34704   0.72415   0.94066   0.0688560000
C          C       0.08266   0.98333   0.81024  -0.1700350000
C          C       0.16645   0.51667   0.88933  -0.1703260000
C          C       0.35296   0.69295   0.92241   0.5847430000
C          C       0.39508   0.69278   0.77641   0.5895590000
C          C       0.40026   0.72414   0.75822   0.0701580000
C          C       0.09818   0.97418   0.77423   0.0674350000
C          C       0.33098   0.73333   0.97625  -0.1709940000
C          C       0.41752   0.76666   0.72365  -0.1714780000
C          C       0.14703   0.80705   0.92241   0.5846950000
C          C       0.10492   0.80722   0.77641   0.5892070000
C          C       0.09974   0.77585   0.75822   0.0700580000
C          C       0.40182   0.52583   0.77424   0.0678580000
C          C       0.16901   0.76667   0.97625  -0.1710040000
C          C       0.08249   0.73333   0.72365  -0.1720220000
C          C       0.39632   0.55704   0.75589   0.5880800000
C          C       0.35533   0.55695   0.94314   0.5913010000
C          C       0.35000   0.52581   0.92461   0.0683870000
C          C       0.15296   0.77585   0.94066   0.0688620000
C          C       0.41735   0.51667   0.81025  -0.1696990000
C          C       0.33355   0.98334   0.88933  -0.1704710000
C          C       0.44293   0.64699   0.83917   0.5889600000
C          C       0.44303   0.60495   0.69312   0.5904820000
C          C       0.47420   0.60005   0.67451   0.0660850000
C          C       0.22416   0.90204   0.69088   0.0702760000
C          C       0.48333   0.66873   0.89305  -0.1702990000
C          C       0.01666   0.58327   0.97285  -0.1700930000
C          C       0.19295   0.89638   0.67248   0.5852460000
C          C       0.19277   0.85527   0.86009   0.5875420000
C          C       0.22417   0.84966   0.84240   0.0692870000
C          C       0.47416   0.65282   0.85734   0.0688210000
C          C       0.23333   0.91780   0.72670  -0.1713030000
C          C       0.26666   0.83299   0.80733  -0.1710400000
C          C       0.30705   0.60362   0.67248   0.5854610000
C          C       0.30723   0.64474   0.86010   0.5873990000
C          C       0.27583   0.65034   0.84240   0.0693870000
C          C       0.02584   0.84718   0.85734   0.0690200000
C          C       0.26667   0.58220   0.72670  -0.1713670000
C          C       0.23335   0.66701   0.80733  -0.1708410000
C          C       0.05707   0.85300   0.83917   0.5888140000
C          C       0.05697   0.89505   0.69312   0.5904570000
C          C       0.02580   0.89995   0.67451   0.0661060000
C          C       0.27585   0.59797   0.69088   0.0702550000
C          C       0.01667   0.83127   0.89305  -0.1703660000
C          C       0.48334   0.91672   0.97284  -0.1701260000
H          H       0.14265   0.62500   0.73806   0.4247070000
H          H       0.28257   0.67802   0.78528   0.1585640000
H          H       0.07241   0.96747   0.83300   0.1570440000
H          H       0.39317   0.87507   0.90514   0.4245700000
H          H       0.03257   0.92795   0.95098   0.1584110000
H          H       0.32040   0.71747   0.99874   0.1578830000
H          H       0.10683   0.62494   0.90514   0.4244890000
H          H       0.46743   0.57205   0.95099   0.1582900000
H          H       0.17960   0.78254   0.99874   0.1579330000
H          H       0.35735   0.87499   0.73805   0.4246840000
H          H       0.21743   0.82198   0.78528   0.1585250000
H          H       0.42759   0.53253   0.83301   0.1568970000
H          H       0.37521   0.89310   0.82168   0.4263560000
H          H       0.32262   0.53256   0.86717   0.1580380000
H          H       0.03253   0.82080   0.91562   0.1572080000
H          H       0.12461   0.64269   0.98828   0.4244680000
H          H       0.07096   0.78256   0.70205   0.1587880000
H          H       0.28253   0.57179   0.74933   0.1577290000
H          H       0.37539   0.85732   0.98827   0.4244230000
H          H       0.42905   0.71744   0.70204   0.1588080000
H          H       0.21748   0.92821   0.74933   0.1577080000
H          H       0.12479   0.60690   0.82168   0.4262560000
H          H       0.17738   0.96744   0.86717   0.1580510000
H          H       0.46747   0.67921   0.91562   0.1571840000
H          H       0.14266   0.87499   0.73806   0.4247810000
H          H       0.28257   0.82198   0.78528   0.1585630000
H          H       0.07240   0.53253   0.83300   0.1569760000
H          H       0.39316   0.62494   0.90514   0.4244550000
H          H       0.03257   0.57205   0.95099   0.1582730000
H          H       0.32040   0.78253   0.99874   0.1579060000
H          H       0.10683   0.87508   0.90514   0.4244600000
H          H       0.46743   0.92795   0.95098   0.1583540000
H          H       0.17960   0.71747   0.99874   0.1578740000
H          H       0.35735   0.62501   0.73806   0.4247460000
H          H       0.21743   0.67802   0.78528   0.1584920000
H          H       0.42759   0.96747   0.83300   0.1570560000
H          H       0.37520   0.60690   0.82168   0.4262080000
H          H       0.32262   0.96744   0.86717   0.1578720000
H          H       0.03253   0.67921   0.91562   0.1571100000
H          H       0.12462   0.85731   0.98827   0.4244060000
H          H       0.07096   0.71744   0.70204   0.1588280000
H          H       0.28253   0.92822   0.74933   0.1579370000
H          H       0.37539   0.64269   0.98827   0.4244880000
H          H       0.42905   0.78256   0.70204   0.1587810000
H          H       0.21748   0.57179   0.74933   0.1577180000
H          H       0.12479   0.89310   0.82168   0.4265090000
H          H       0.17738   0.53256   0.86718   0.1579740000
H          H       0.46747   0.82080   0.91562   0.1570890000
Al         Al      0.62442   0.59123   0.68269   1.6718300000
Al         Al      0.87465   0.84149   0.84950   1.6690770000
Al         Al      0.62535   0.65851   0.84950   1.6689260000
Al         Al      0.87558   0.90877   0.68269   1.6718590000
Al         Al      0.90876   0.87467   0.76612   1.6754850000
Al         Al      0.65845   0.62444   0.93282   1.6657530000
Al         Al      0.84156   0.87556   0.93282   1.6658560000
Al         Al      0.59123   0.62533   0.76613   1.6752570000
Al         Al      0.62442   0.90876   0.68269   1.6719000000
Al         Al      0.87465   0.65851   0.84950   1.6689860000
Al         Al      0.62535   0.84149   0.84950   1.6690320000
Al         Al      0.87559   0.59123   0.68269   1.6718960000
Al         Al      0.90876   0.62533   0.76613   1.6753230000
Al         Al      0.65845   0.87556   0.93282   1.6658490000
Al         Al      0.84156   0.62444   0.93282   1.6657530000
Al         Al      0.59123   0.87467   0.76613   1.6755320000
O          O       0.57951   0.90950   0.67503  -0.5802820000
O          O       0.62060   0.55841   0.72309  -0.5698160000
O          O       0.62720   0.87757   0.97458  -1.0046660000
O          O       0.66986   0.59042   0.69154  -0.6017490000
O          O       0.62715   0.55871   0.97538  -0.5641030000
O          O       0.82986   0.65883   0.84164  -0.5785060000
O          O       0.86991   0.80810   0.88960  -0.5659480000
O          O       0.87776   0.62720   0.80810  -1.0081920000
O          O       0.91995   0.83974   0.85834  -0.6012450000
O          O       0.87759   0.80924   0.80863  -0.5642920000
O          O       0.67014   0.84117   0.84164  -0.5786910000
O          O       0.63009   0.69190   0.88960  -0.5659690000
O          O       0.62224   0.87280   0.80810  -1.0085130000
O          O       0.58005   0.66027   0.85834  -0.6008790000
O          O       0.62241   0.69076   0.80864  -0.5643100000
O          O       0.92048   0.59051   0.67503  -0.5804390000
O          O       0.87940   0.94159   0.72309  -0.5698450000
O          O       0.87281   0.62243   0.97458  -1.0046280000
O          O       0.83014   0.90958   0.69154  -0.6016340000
O          O       0.87285   0.94129   0.97538  -0.5639680000
O          O       0.59055   0.82980   0.75823  -0.5800560000
O          O       0.94163   0.87003   0.80647  -0.5701370000
O          O       0.62232   0.87769   0.72461  -1.0076240000
O          O       0.90972   0.92006   0.77502  -0.6007350000
O          O       0.94126   0.87773   0.72555  -0.5647290000
O          O       0.84110   0.57961   0.92503  -0.5800640000
O          O       0.69185   0.62050   0.97295  -0.5656810000
O          O       0.87291   0.62733   0.89140  -1.0040030000
O          O       0.66014   0.66983   0.94154  -0.6008530000
O          O       0.69069   0.62701   0.89207  -0.5633090000
O          O       0.65890   0.92039   0.92503  -0.5801180000
O          O       0.80815   0.87950   0.97295  -0.5658090000
O          O       0.62710   0.87267   0.89139  -1.0040010000
O          O       0.83986   0.83017   0.94154  -0.6008400000
O          O       0.80930   0.87300   0.89207  -0.5631840000
O          O       0.90945   0.67019   0.75823  -0.5802540000
O          O       0.55837   0.62997   0.80647  -0.5701660000
O          O       0.87768   0.62232   0.72461  -1.0074870000
O          O       0.59028   0.57995   0.77502  -0.6006500000
O          O       0.55875   0.62227   0.72555  -0.5645680000
O          O       0.57952   0.59051   0.67503  -0.5805760000
O          O       0.62060   0.94159   0.72309  -0.5698470000
O          O       0.62720   0.62243   0.97458  -1.0045670000
O          O       0.66986   0.90958   0.69154  -0.6016870000
O          O       0.62715   0.94129   0.97538  -0.5641410000
O          O       0.82986   0.84117   0.84164  -0.5785640000
O          O       0.86991   0.69190   0.88960  -0.5659720000
O          O       0.87776   0.87280   0.80809  -1.0084130000
O          O       0.91995   0.66026   0.85834  -0.6009390000
O          O       0.87759   0.69076   0.80863  -0.5643700000
O          O       0.67014   0.65883   0.84164  -0.5785280000
O          O       0.63010   0.80810   0.88960  -0.5660810000
O          O       0.62225   0.62720   0.80810  -1.0082610000
O          O       0.58005   0.83974   0.85834  -0.6009170000
O          O       0.62241   0.80925   0.80864  -0.5642120000
O          O       0.92048   0.90949   0.67503  -0.5804040000
O          O       0.87940   0.55841   0.72309  -0.5698030000
O          O       0.87281   0.87757   0.97458  -1.0045830000
O          O       0.83014   0.59043   0.69154  -0.6019220000
O          O       0.87285   0.55871   0.97538  -0.5641140000
O          O       0.59055   0.67020   0.75823  -0.5801470000
O          O       0.94163   0.62997   0.80647  -0.5702050000
O          O       0.62232   0.62231   0.72461  -1.0074610000
O          O       0.90972   0.57994   0.77502  -0.6007720000
O          O       0.94126   0.62227   0.72555  -0.5645930000
O          O       0.84110   0.92039   0.92503  -0.5802370000
O          O       0.69185   0.87950   0.97295  -0.5657550000
O          O       0.87291   0.87267   0.89140  -1.0040570000
O          O       0.66014   0.83018   0.94153  -0.6007460000
O          O       0.69070   0.87300   0.89207  -0.5632380000
O          O       0.65890   0.57961   0.92503  -0.5801750000
O          O       0.80815   0.62050   0.97295  -0.5656970000
O          O       0.62709   0.62733   0.89140  -1.0040500000
O          O       0.83986   0.66983   0.94154  -0.6008190000
O          O       0.80930   0.62701   0.89207  -0.5633290000
O          O       0.90945   0.82980   0.75823  -0.5800060000
O          O       0.55837   0.87003   0.80647  -0.5701460000
O          O       0.87768   0.87769   0.72461  -1.0075560000
O          O       0.59028   0.92006   0.77502  -0.6009650000
O          O       0.55874   0.87773   0.72555  -0.5647360000
O          O       0.63957   0.50000   0.94612  -0.0663720000
O          O       0.88918   0.75000   0.77930  -0.0692620000
O          O       0.61082   0.75000   0.77930  -0.0693700000
O          O       0.86043   0.50000   0.94612  -0.0662650000
O          O       0.50000   0.88915   0.69584  -0.0633940000
O          O       0.75000   0.86024   0.86400  -0.0658050000
O          O       0.50000   0.61086   0.69584  -0.0632390000
O          O       0.75000   0.63977   0.86400  -0.0658580000
O          O       0.85717   0.75000   0.91884  -0.0631620000
O          O       0.60800   0.50000   0.75215  -0.0618020000
O          O       0.89200   0.50000   0.75215  -0.0619390000
O          O       0.64284   0.75000   0.91884  -0.0632450000
O          O       0.75000   0.60794   0.66891  -0.0651910000
O          O       0.50000   0.64279   0.83544  -0.0637130000
O          O       0.75000   0.89206   0.66891  -0.0651490000
O          O       0.50000   0.85721   0.83544  -0.0636920000
C          C       0.60368   0.55704   0.75589   0.5880130000
C          C       0.64467   0.55695   0.94314   0.5914330000
C          C       0.64999   0.52581   0.92461   0.0684490000
C          C       0.84705   0.77585   0.94066   0.0687840000
C          C       0.58266   0.51667   0.81025  -0.1697980000
C          C       0.66645   0.98334   0.88933  -0.1705860000
C          C       0.85296   0.80705   0.92241   0.5846730000
C          C       0.89508   0.80722   0.77641   0.5892660000
C          C       0.90026   0.77586   0.75822   0.0699490000
C          C       0.59818   0.52583   0.77424   0.0677960000
C          C       0.83098   0.76667   0.97625  -0.1709570000
C          C       0.91752   0.73333   0.72365  -0.1719100000
C          C       0.64704   0.69295   0.92241   0.5848460000
C          C       0.60492   0.69278   0.77641   0.5893530000
C          C       0.59974   0.72414   0.75822   0.0703490000
C          C       0.90182   0.97417   0.77423   0.0673830000
C          C       0.66902   0.73333   0.97625  -0.1707980000
C          C       0.58249   0.76666   0.72365  -0.1714770000
C          C       0.89632   0.94295   0.75589   0.5882260000
C          C       0.85533   0.94305   0.94314   0.5913940000
C          C       0.85001   0.97419   0.92461   0.0683570000
C          C       0.65296   0.72415   0.94066   0.0686480000
C          C       0.91734   0.98333   0.81024  -0.1698740000
C          C       0.83355   0.51667   0.88932  -0.1702170000
C          C       0.94293   0.85301   0.83917   0.5890980000
C          C       0.94303   0.89505   0.69312   0.5906350000
C          C       0.97420   0.89995   0.67451   0.0659590000
C          C       0.72415   0.59797   0.69088   0.0703230000
C          C       0.98333   0.83127   0.89305  -0.1702510000
C          C       0.51666   0.91672   0.97284  -0.1699640000
C          C       0.69295   0.60362   0.67248   0.5853780000
C          C       0.69276   0.64474   0.86010   0.5874240000
C          C       0.72417   0.65035   0.84240   0.0693820000
C          C       0.97417   0.84718   0.85734   0.0687640000
C          C       0.73333   0.58220   0.72670  -0.1712360000
C          C       0.76666   0.66701   0.80733  -0.1709880000
C          C       0.80705   0.89638   0.67248   0.5852420000
C          C       0.80724   0.85527   0.86010   0.5872950000
C          C       0.77584   0.84966   0.84240   0.0695500000
C          C       0.52584   0.65282   0.85734   0.0688810000
C          C       0.76667   0.91780   0.72670  -0.1713390000
C          C       0.73334   0.83299   0.80733  -0.1709820000
C          C       0.55707   0.64699   0.83917   0.5888370000
C          C       0.55697   0.60495   0.69313   0.5905890000
C          C       0.52580   0.60005   0.67451   0.0661670000
C          C       0.77585   0.90204   0.69088   0.0702680000
C          C       0.51667   0.66873   0.89305  -0.1701900000
C          C       0.98334   0.58327   0.97285  -0.1700710000
C          C       0.60368   0.94295   0.75589   0.5884780000
C          C       0.64467   0.94305   0.94313   0.5913420000
C          C       0.65000   0.97419   0.92461   0.0685880000
C          C       0.84704   0.72415   0.94066   0.0688560000
C          C       0.58265   0.98333   0.81024  -0.1700350000
C          C       0.66645   0.51667   0.88933  -0.1703260000
C          C       0.85297   0.69295   0.92241   0.5847430000
C          C       0.89508   0.69278   0.77641   0.5895590000
C          C       0.90026   0.72414   0.75822   0.0701580000
C          C       0.59818   0.97418   0.77423   0.0674350000
C          C       0.83098   0.73333   0.97625  -0.1709940000
C          C       0.91752   0.76666   0.72365  -0.1714780000
C          C       0.64704   0.80705   0.92241   0.5846950000
C          C       0.60492   0.80722   0.77641   0.5892070000
C          C       0.59974   0.77585   0.75822   0.0700580000
C          C       0.90182   0.52583   0.77424   0.0678580000
C          C       0.66902   0.76667   0.97625  -0.1710040000
C          C       0.58249   0.73333   0.72365  -0.1720220000
C          C       0.89632   0.55704   0.75589   0.5880800000
C          C       0.85533   0.55695   0.94314   0.5913010000
C          C       0.85001   0.52581   0.92461   0.0683870000
C          C       0.65296   0.77585   0.94066   0.0688620000
C          C       0.91735   0.51667   0.81025  -0.1696990000
C          C       0.83355   0.98334   0.88933  -0.1704710000
C          C       0.94293   0.64699   0.83917   0.5889600000
C          C       0.94303   0.60495   0.69312   0.5904820000
C          C       0.97420   0.60005   0.67451   0.0660850000
C          C       0.72416   0.90204   0.69088   0.0702760000
C          C       0.98333   0.66873   0.89305  -0.1702990000
C          C       0.51666   0.58327   0.97285  -0.1700930000
C          C       0.69295   0.89638   0.67248   0.5852460000
C          C       0.69276   0.85527   0.86009   0.5875420000
C          C       0.72417   0.84966   0.84240   0.0692870000
C          C       0.97417   0.65282   0.85734   0.0688210000
C          C       0.73333   0.91780   0.72670  -0.1713030000
C          C       0.76666   0.83299   0.80733  -0.1710400000
C          C       0.80705   0.60362   0.67248   0.5854610000
C          C       0.80723   0.64474   0.86010   0.5873990000
C          C       0.77583   0.65034   0.84240   0.0693870000
C          C       0.52584   0.84718   0.85734   0.0690200000
C          C       0.76667   0.58220   0.72670  -0.1713670000
C          C       0.73335   0.66701   0.80733  -0.1708410000
C          C       0.55707   0.85300   0.83917   0.5888140000
C          C       0.55697   0.89505   0.69312   0.5904570000
C          C       0.52580   0.89995   0.67451   0.0661060000
C          C       0.77585   0.59797   0.69088   0.0702550000
C          C       0.51667   0.83127   0.89305  -0.1703660000
C          C       0.98334   0.91672   0.97284  -0.1701260000
H          H       0.64265   0.62500   0.73806   0.4247070000
H          H       0.78257   0.67802   0.78528   0.1585640000
H          H       0.57241   0.96747   0.83300   0.1570440000
H          H       0.89317   0.87507   0.90514   0.4245700000
H          H       0.53257   0.92795   0.95098   0.1584110000
H          H       0.82040   0.71747   0.99874   0.1578830000
H          H       0.60684   0.62494   0.90514   0.4244890000
H          H       0.96743   0.57205   0.95099   0.1582900000
H          H       0.67960   0.78254   0.99874   0.1579330000
H          H       0.85735   0.87499   0.73805   0.4246840000
H          H       0.71743   0.82198   0.78528   0.1585250000
H          H       0.92759   0.53253   0.83301   0.1568970000
H          H       0.87521   0.89310   0.82168   0.4263560000
H          H       0.82262   0.53256   0.86717   0.1580380000
H          H       0.53253   0.82080   0.91562   0.1572080000
H          H       0.62462   0.64269   0.98828   0.4244680000
H          H       0.57096   0.78256   0.70205   0.1587880000
H          H       0.78253   0.57179   0.74933   0.1577290000
H          H       0.87539   0.85732   0.98827   0.4244230000
H          H       0.92905   0.71744   0.70204   0.1588080000
H          H       0.71747   0.92821   0.74933   0.1577080000
H          H       0.62479   0.60690   0.82168   0.4262560000
H          H       0.67738   0.96744   0.86717   0.1580510000
H          H       0.96747   0.67921   0.91562   0.1571840000
H          H       0.64266   0.87499   0.73806   0.4247810000
H          H       0.78257   0.82198   0.78528   0.1585630000
H          H       0.57241   0.53253   0.83300   0.1569760000
H          H       0.89316   0.62494   0.90514   0.4244550000
H          H       0.53257   0.57205   0.95099   0.1582730000
H          H       0.82040   0.78253   0.99874   0.1579060000
H          H       0.60684   0.87508   0.90514   0.4244600000
H          H       0.96743   0.92795   0.95098   0.1583540000
H          H       0.67960   0.71747   0.99874   0.1578740000
H          H       0.85735   0.62501   0.73806   0.4247460000
H          H       0.71743   0.67802   0.78528   0.1584920000
H          H       0.92759   0.96747   0.83300   0.1570560000
H          H       0.87520   0.60690   0.82168   0.4262080000
H          H       0.82262   0.96744   0.86717   0.1578720000
H          H       0.53253   0.67921   0.91562   0.1571100000
H          H       0.62462   0.85731   0.98827   0.4244060000
H          H       0.57096   0.71744   0.70204   0.1588280000
H          H       0.78253   0.92822   0.74933   0.1579370000
H          H       0.87539   0.64269   0.98827   0.4244880000
H          H       0.92905   0.78256   0.70204   0.1587810000
H          H       0.71747   0.57179   0.74933   0.1577180000
H          H       0.62479   0.89310   0.82168   0.4265090000
H          H       0.67738   0.53256   0.86718   0.1579740000
H          H       0.96747   0.82080   0.91562   0.1570890000
